LTspice 24.1.1 for Windows
Circuit: C:\Users\Guilherme Xavier\Documents\GitHub\Retificadores\Draft1.net
Start Time: Wed Feb 19 10:34:33 2025
solver = Normal
Maximum thread count: 4
tnom = 27
temp = 27
method = trap
Direct Newton iteration for .op point succeeded.
Total elapsed time: 0.185 seconds.

Files loaded:
C:\Users\Guilherme Xavier\Documents\GitHub\Retificadores\Draft1.net
C:\Users\Guilherme Xavier\AppData\Local\LTspice\lib\cmp\standard.dio

