LTspice 24.1.1 for Windows
Circuit: C:\Users\Guilherme Xavier\Documents\GitHub\Retificadores\Retificador Monofásico.net
Start Time: Tue Feb  4 23:54:32 2025
solver = Normal
Maximum thread count: 4
tnom = 27
temp = 27
method = trap
WARNING: Node n004 is floating.

.OP point found by inspection.
Warning: Simulation tolerance relaxed to achieve convergence from 3.0150011456354694e-07 to 3.0150011456454691e-07 seconds.
Warning: Simulation tolerance relaxed to achieve convergence from 3.0150011456954690e-07 to 3.0150011457054687e-07 seconds.
Warning: Simulation tolerance relaxed to achieve convergence from 3.0150011457954681e-07 to 3.0150011458054678e-07 seconds.
Warning: Simulation tolerance relaxed to achieve convergence from 3.0150011521754679e-07 to 3.0150011521854677e-07 seconds.
Warning: Simulation tolerance relaxed to achieve convergence from 3.0150011522154675e-07 to 3.0150011522254672e-07 seconds.
Warning: Simulation tolerance relaxed to achieve convergence from 3.0150011527854661e-07 to 3.0150011527954659e-07 seconds.
Warning: Simulation tolerance relaxed to achieve convergence from 3.0150011528454652e-07 to 3.0150011528554649e-07 seconds.
Warning: Simulation tolerance relaxed to achieve convergence from 3.0150011529154650e-07 to 3.0150011529254648e-07 seconds.
Warning: Simulation tolerance relaxed to achieve convergence from 3.0150011573154650e-07 to 3.0150011573254648e-07 seconds.
Warning: Simulation tolerance relaxed to achieve convergence from 3.0150011574954643e-07 to 3.0150011575054641e-07 seconds.
Warning: Simulation tolerance relaxed to achieve convergence from 3.0150011578754645e-07 to 3.0150011578854642e-07 seconds.
Warning: Simulation tolerance relaxed to achieve convergence from 3.0150011580754643e-07 to 3.0150011580854640e-07 seconds.
Warning: Simulation tolerance relaxed to achieve convergence from 3.0150011595154637e-07 to 3.0150011595254635e-07 seconds.
Warning: Simulation tolerance relaxed to achieve convergence from 3.0150011666954629e-07 to 3.0150011667054626e-07 seconds.
Warning: Simulation tolerance relaxed to achieve convergence from 3.0150011668454629e-07 to 3.0150011668554627e-07 seconds.
Warning: Simulation tolerance relaxed to achieve convergence from 3.0150014121154635e-07 to 3.0150014121254632e-07 seconds.
Warning: Simulation tolerance relaxed to achieve convergence from 3.0150014145154630e-07 to 3.0150014145254628e-07 seconds.
Warning: Simulation tolerance relaxed to achieve convergence from 3.0150014146254624e-07 to 3.0150014146354622e-07 seconds.
Warning: Simulation tolerance relaxed to achieve convergence from 3.0150014147054621e-07 to 3.0150014147154618e-07 seconds.
Warning: Simulation tolerance relaxed to achieve convergence from 3.0150014147154618e-07 to 3.0150014147254616e-07 seconds.
Warning: Simulation tolerance relaxed to achieve convergence from 3.0150014151354605e-07 to 3.0150014151454602e-07 seconds.
Warning: Simulation tolerance relaxed to achieve convergence from 3.0150014151454602e-07 to 3.0150014151554600e-07 seconds.
Warning: Simulation tolerance relaxed to achieve convergence from 3.0150014154654597e-07 to 3.0150014154754595e-07 seconds.
Warning: Simulation tolerance relaxed to achieve convergence from 3.0150014154754595e-07 to 3.0150014154854592e-07 seconds.
Warning: Simulation tolerance relaxed to achieve convergence from 3.0150014287654594e-07 to 3.0150014287754591e-07 seconds.
Warning: Simulation tolerance relaxed to achieve convergence from 3.0150014304754564e-07 to 3.0150014304854561e-07 seconds.
Warning: Simulation tolerance relaxed to achieve convergence from 3.0150014306854554e-07 to 3.0150014306954552e-07 seconds.
Warning: Simulation tolerance relaxed to achieve convergence from 3.0150014306954552e-07 to 3.0150014307054549e-07 seconds.
Warning: Simulation tolerance relaxed to achieve convergence from 3.0182955223254560e-07 to 3.0182955223354558e-07 seconds.
Warning: Simulation tolerance relaxed to achieve convergence from 3.0182955223554558e-07 to 3.0182955223654556e-07 seconds.
Warning: Simulation tolerance relaxed to achieve convergence from 3.0182955549054566e-07 to 3.0182955549154563e-07 seconds.
Warning: Simulation tolerance relaxed to achieve convergence from 3.0182955550054562e-07 to 3.0182955550154560e-07 seconds.
Warning: Simulation tolerance relaxed to achieve convergence from 3.0182955572254554e-07 to 3.0182955572354552e-07 seconds.
Warning: Simulation tolerance relaxed to achieve convergence from 3.0182955572954548e-07 to 3.0182955573054545e-07 seconds.
Warning: Simulation tolerance relaxed to achieve convergence from 3.0182955647754545e-07 to 3.0182955647854543e-07 seconds.
Warning: Simulation tolerance relaxed to achieve convergence from 3.0182955647854543e-07 to 3.0182955647954540e-07 seconds.
Warning: Simulation tolerance relaxed to achieve convergence from 3.0182955650054536e-07 to 3.0182955650154533e-07 seconds.
Warning: Simulation tolerance relaxed to achieve convergence from 3.0182955650654526e-07 to 3.0182955650754524e-07 seconds.
Warning: Simulation tolerance relaxed to achieve convergence from 3.0182955664554517e-07 to 3.0182955664654515e-07 seconds.
Warning: Simulation tolerance relaxed to achieve convergence from 3.0182955680954515e-07 to 3.0182955681054512e-07 seconds.
Warning: Simulation tolerance relaxed to achieve convergence from 3.0182955682054509e-07 to 3.0182955682154507e-07 seconds.
Warning: Simulation tolerance relaxed to achieve convergence from 3.0182955683554509e-07 to 3.0182955683654507e-07 seconds.
Warning: Simulation tolerance relaxed to achieve convergence from 3.0182955685054509e-07 to 3.0182955685154507e-07 seconds.
Warning: Simulation tolerance relaxed to achieve convergence from 3.0182955844554514e-07 to 3.0182955844654511e-07 seconds.
Warning: Simulation tolerance relaxed to achieve convergence from 3.0182956389254509e-07 to 3.0182956389354506e-07 seconds.
Warning: Simulation tolerance relaxed to achieve convergence from 3.0182956390054505e-07 to 3.0182956390154502e-07 seconds.
Warning: Simulation tolerance relaxed to achieve convergence from 3.0182956398854505e-07 to 3.0182956398954502e-07 seconds.
Warning: Simulation tolerance relaxed to achieve convergence from 3.0182956461854497e-07 to 3.0182956461954494e-07 seconds.
Warning: Simulation tolerance relaxed to achieve convergence from 3.0182956694554480e-07 to 3.0182956694654477e-07 seconds.
Warning: Simulation tolerance relaxed to achieve convergence from 3.0182956705654465e-07 to 3.0182956705754463e-07 seconds.
Warning: Simulation tolerance relaxed to achieve convergence from 3.0182956706354464e-07 to 3.0182956706454461e-07 seconds.
Warning: Simulation tolerance relaxed to achieve convergence from 3.0182956738454461e-07 to 3.0182956738554458e-07 seconds.
Warning: Simulation tolerance relaxed to achieve convergence from 3.0182956738754459e-07 to 3.0182956738854456e-07 seconds.
Warning: Simulation tolerance relaxed to achieve convergence from 3.0182956740354451e-07 to 3.0182956740454449e-07 seconds.
Warning: Simulation tolerance relaxed to achieve convergence from 3.0182956742054451e-07 to 3.0182956742154449e-07 seconds.
Warning: Simulation tolerance relaxed to achieve convergence from 3.0182956745754445e-07 to 3.0182956745854442e-07 seconds.
Warning: Simulation tolerance relaxed to achieve convergence from 3.0182956746054443e-07 to 3.0182956746154440e-07 seconds.
Warning: Simulation tolerance relaxed to achieve convergence from 3.0182956746754441e-07 to 3.0182956746854439e-07 seconds.
Warning: Simulation tolerance relaxed to achieve convergence from 3.0183138207154451e-07 to 3.0183138207254449e-07 seconds.
Warning: Simulation tolerance relaxed to achieve convergence from 3.0183138214454441e-07 to 3.0183138214554438e-07 seconds.
Warning: Simulation tolerance relaxed to achieve convergence from 3.0183138219054438e-07 to 3.0183138219154436e-07 seconds.
Warning: Simulation tolerance relaxed to achieve convergence from 3.0183138219754432e-07 to 3.0183138219854429e-07 seconds.
Warning: Simulation tolerance relaxed to achieve convergence from 3.0183138220154427e-07 to 3.0183138220254425e-07 seconds.
Warning: Simulation tolerance relaxed to achieve convergence from 3.0183138296154427e-07 to 3.0183138296254424e-07 seconds.
Warning: Simulation tolerance relaxed to achieve convergence from 3.0183138296954423e-07 to 3.0183138297054420e-07 seconds.
Warning: Simulation tolerance relaxed to achieve convergence from 3.0183138297054420e-07 to 3.0183138297154418e-07 seconds.
Warning: Simulation tolerance relaxed to achieve convergence from 3.0183138317254409e-07 to 3.0183138317354407e-07 seconds.
Warning: Simulation tolerance relaxed to achieve convergence from 3.0183138317654404e-07 to 3.0183138317754402e-07 seconds.
Warning: Simulation tolerance relaxed to achieve convergence from 3.0183138330754394e-07 to 3.0183138330854391e-07 seconds.
Warning: Simulation tolerance relaxed to achieve convergence from 3.0183138331054392e-07 to 3.0183138331154389e-07 seconds.
Warning: Simulation tolerance relaxed to achieve convergence from 3.0183138332654389e-07 to 3.0183138332754387e-07 seconds.
Warning: Simulation tolerance relaxed to achieve convergence from 3.0183138333554383e-07 to 3.0183138333654380e-07 seconds.
Warning: Simulation tolerance relaxed to achieve convergence from 3.0183138335754371e-07 to 3.0183138335854368e-07 seconds.
Warning: Simulation tolerance relaxed to achieve convergence from 3.0183138356354360e-07 to 3.0183138356454358e-07 seconds.
Warning: Simulation tolerance relaxed to achieve convergence from 3.0183138361354343e-07 to 3.0183138361454340e-07 seconds.
Warning: Simulation tolerance relaxed to achieve convergence from 3.0183138361654341e-07 to 3.0183138361754338e-07 seconds.
Warning: Simulation tolerance relaxed to achieve convergence from 3.0183138361754338e-07 to 3.0183138361854336e-07 seconds.
Warning: Simulation tolerance relaxed to achieve convergence from 3.0183138362954330e-07 to 3.0183138363054327e-07 seconds.
Warning: Simulation tolerance relaxed to achieve convergence from 3.0183138384654308e-07 to 3.0183138384754306e-07 seconds.
Warning: Simulation tolerance relaxed to achieve convergence from 3.0183138392554304e-07 to 3.0183138392654301e-07 seconds.
Warning: Simulation tolerance relaxed to achieve convergence from 3.0183138393654293e-07 to 3.0183138393754290e-07 seconds.
Warning: Simulation tolerance relaxed to achieve convergence from 3.0183138394154286e-07 to 3.0183138394254283e-07 seconds.
Warning: Simulation tolerance relaxed to achieve convergence from 3.0183138394454284e-07 to 3.0183138394554281e-07 seconds.
Warning: Simulation tolerance relaxed to achieve convergence from 3.0183138429854268e-07 to 3.0183138429954265e-07 seconds.
Warning: Simulation tolerance relaxed to achieve convergence from 3.0183138438954266e-07 to 3.0183138439054263e-07 seconds.
Warning: Simulation tolerance relaxed to achieve convergence from 3.0183138463854255e-07 to 3.0183138463954253e-07 seconds.
Warning: Simulation tolerance relaxed to achieve convergence from 3.0183138467954244e-07 to 3.0183138468054242e-07 seconds.
Warning: Simulation tolerance relaxed to achieve convergence from 3.0183138524554235e-07 to 3.0183138524654232e-07 seconds.
Warning: Simulation tolerance relaxed to achieve convergence from 3.0183138531654219e-07 to 3.0183138531754216e-07 seconds.
Warning: Simulation tolerance relaxed to achieve convergence from 3.0183138532254209e-07 to 3.0183138532354207e-07 seconds.
Warning: Simulation tolerance relaxed to achieve convergence from 3.0183138533954210e-07 to 3.0183138534054207e-07 seconds.
Warning: Simulation tolerance relaxed to achieve convergence from 3.0183139727454210e-07 to 3.0183139727554208e-07 seconds.
Warning: Simulation tolerance relaxed to achieve convergence from 3.0183139736554187e-07 to 3.0183139736654184e-07 seconds.
Warning: Simulation tolerance relaxed to achieve convergence from 3.0183139806054182e-07 to 3.0183139806154180e-07 seconds.
Warning: Simulation tolerance relaxed to achieve convergence from 3.0183144740754175e-07 to 3.0183144740854173e-07 seconds.
Warning: Simulation tolerance relaxed to achieve convergence from 3.0183151230554144e-07 to 3.0183151230654141e-07 seconds.
Warning: Simulation tolerance relaxed to achieve convergence from 3.0183155020454142e-07 to 3.0183155020554139e-07 seconds.
Warning: Simulation tolerance relaxed to achieve convergence from 3.0183155022254140e-07 to 3.0183155022354137e-07 seconds.
Warning: Simulation tolerance relaxed to achieve convergence from 3.0183155029954140e-07 to 3.0183155030054138e-07 seconds.
Warning: Simulation tolerance relaxed to achieve convergence from 3.0183155036554131e-07 to 3.0183155036654129e-07 seconds.
Warning: Simulation tolerance relaxed to achieve convergence from 3.0183155040654120e-07 to 3.0183155040754118e-07 seconds.
Warning: Simulation tolerance relaxed to achieve convergence from 3.0183155041354108e-07 to 3.0183155041454106e-07 seconds.
Warning: Simulation tolerance relaxed to achieve convergence from 3.0183155334654110e-07 to 3.0183155334754108e-07 seconds.
Warning: Simulation tolerance relaxed to achieve convergence from 3.0183155334754108e-07 to 3.0183155334854105e-07 seconds.
Warning: Simulation tolerance relaxed to achieve convergence from 3.0183155360854105e-07 to 3.0183155360954102e-07 seconds.
Warning: Simulation tolerance relaxed to achieve convergence from 3.0183155370454085e-07 to 3.0183155370554082e-07 seconds.
Warning: Simulation tolerance relaxed to achieve convergence from 3.0183155371254081e-07 to 3.0183155371354079e-07 seconds.
Warning: Simulation tolerance relaxed to achieve convergence from 3.0183155371354079e-07 to 3.0183155371454076e-07 seconds.
Warning: Simulation tolerance relaxed to achieve convergence from 3.0183155374354073e-07 to 3.0183155374454071e-07 seconds.
Warning: Simulation tolerance relaxed to achieve convergence from 3.0183155385854076e-07 to 3.0183155385954073e-07 seconds.
Warning: Simulation tolerance relaxed to achieve convergence from 3.0183155668754070e-07 to 3.0183155668854067e-07 seconds.
Warning: Simulation tolerance relaxed to achieve convergence from 3.0183208121654061e-07 to 3.0183208121754059e-07 seconds.
Warning: Simulation tolerance relaxed to achieve convergence from 3.0183208138054059e-07 to 3.0183208138154057e-07 seconds.
Warning: Simulation tolerance relaxed to achieve convergence from 3.0183208235954058e-07 to 3.0183208236054056e-07 seconds.
Warning: Simulation tolerance relaxed to achieve convergence from 3.0183208236054056e-07 to 3.0183208236154053e-07 seconds.
Warning: Simulation tolerance relaxed to achieve convergence from 3.0183208236254051e-07 to 3.0183208236354048e-07 seconds.
Warning: Simulation tolerance relaxed to achieve convergence from 3.0183208344854035e-07 to 3.0183208344954033e-07 seconds.
Warning: Simulation tolerance relaxed to achieve convergence from 3.0183208345154033e-07 to 3.0183208345254030e-07 seconds.
Warning: Simulation tolerance relaxed to achieve convergence from 3.0183208345754029e-07 to 3.0183208345854026e-07 seconds.
Warning: Simulation tolerance relaxed to achieve convergence from 3.0183208346654022e-07 to 3.0183208346754020e-07 seconds.
Warning: Simulation tolerance relaxed to achieve convergence from 3.0183208348754008e-07 to 3.0183208348854005e-07 seconds.
Warning: Simulation tolerance relaxed to achieve convergence from 3.0183208351154001e-07 to 3.0183208351253999e-07 seconds.
Warning: Simulation tolerance relaxed to achieve convergence from 3.0183208658753990e-07 to 3.0183208658853987e-07 seconds.
Warning: Simulation tolerance relaxed to achieve convergence from 3.0183209128553979e-07 to 3.0183209128653977e-07 seconds.
Warning: Simulation tolerance relaxed to achieve convergence from 3.0183209130353972e-07 to 3.0183209130453970e-07 seconds.
Warning: Simulation tolerance relaxed to achieve convergence from 3.0183209132453968e-07 to 3.0183209132553965e-07 seconds.
Warning: Simulation tolerance relaxed to achieve convergence from 3.0183634633153938e-07 to 3.0183634633253935e-07 seconds.
Warning: Simulation tolerance relaxed to achieve convergence from 3.0183635033253910e-07 to 3.0183635033353908e-07 seconds.
Warning: Simulation tolerance relaxed to achieve convergence from 3.0183648627153898e-07 to 3.0183648627253896e-07 seconds.
Warning: Simulation tolerance relaxed to achieve convergence from 3.0183649045953912e-07 to 3.0183649046053910e-07 seconds.
Warning: Simulation tolerance relaxed to achieve convergence from 3.0183649077353895e-07 to 3.0183649077453893e-07 seconds.
Warning: Simulation tolerance relaxed to achieve convergence from 3.0183649401453879e-07 to 3.0183649401553876e-07 seconds.
Warning: Simulation tolerance relaxed to achieve convergence from 3.0183649401553876e-07 to 3.0183649401653874e-07 seconds.
Warning: Simulation tolerance relaxed to achieve convergence from 3.0183649408853866e-07 to 3.0183649408953863e-07 seconds.
Warning: Simulation tolerance relaxed to achieve convergence from 3.0183649409253861e-07 to 3.0183649409353859e-07 seconds.
Warning: Simulation tolerance relaxed to achieve convergence from 3.0183649414353852e-07 to 3.0183649414453849e-07 seconds.
Warning: Simulation tolerance relaxed to achieve convergence from 3.0183649414453849e-07 to 3.0183649414553847e-07 seconds.
Warning: Simulation tolerance relaxed to achieve convergence from 3.0183649415153848e-07 to 3.0183649415253845e-07 seconds.
Warning: Simulation tolerance relaxed to achieve convergence from 3.0183649424153838e-07 to 3.0183649424253835e-07 seconds.
Warning: Simulation tolerance relaxed to achieve convergence from 3.0183649477053814e-07 to 3.0183649477153811e-07 seconds.
Warning: Simulation tolerance relaxed to achieve convergence from 3.0183649822853813e-07 to 3.0183649822953810e-07 seconds.
Warning: Simulation tolerance relaxed to achieve convergence from 3.0183649823553811e-07 to 3.0183649823653809e-07 seconds.
Warning: Simulation tolerance relaxed to achieve convergence from 3.0183649833653795e-07 to 3.0183649833753793e-07 seconds.
Warning: Simulation tolerance relaxed to achieve convergence from 3.0183649860853781e-07 to 3.0183649860953778e-07 seconds.
Warning: Simulation tolerance relaxed to achieve convergence from 3.0183649862453778e-07 to 3.0183649862553776e-07 seconds.
Warning: Simulation tolerance relaxed to achieve convergence from 3.0183649863053774e-07 to 3.0183649863153772e-07 seconds.
Warning: Simulation tolerance relaxed to achieve convergence from 3.0183650009253747e-07 to 3.0183650009353744e-07 seconds.
Warning: Simulation tolerance relaxed to achieve convergence from 3.0183650031053738e-07 to 3.0183650031153736e-07 seconds.
Warning: Simulation tolerance relaxed to achieve convergence from 3.0183650031353736e-07 to 3.0183650031453734e-07 seconds.
Warning: Simulation tolerance relaxed to achieve convergence from 3.0183650033253726e-07 to 3.0183650033353724e-07 seconds.
Warning: Simulation tolerance relaxed to achieve convergence from 3.0183650033653722e-07 to 3.0183650033753719e-07 seconds.
Warning: Simulation tolerance relaxed to achieve convergence from 3.0183650067353716e-07 to 3.0183650067453714e-07 seconds.
Warning: Simulation tolerance relaxed to achieve convergence from 3.0183650068853717e-07 to 3.0183650068953714e-07 seconds.
Warning: Simulation tolerance relaxed to achieve convergence from 3.0183650069653713e-07 to 3.0183650069753710e-07 seconds.
Warning: Simulation tolerance relaxed to achieve convergence from 3.0183655606253709e-07 to 3.0183655606353706e-07 seconds.
Warning: Simulation tolerance relaxed to achieve convergence from 3.0183655606353706e-07 to 3.0183655606453704e-07 seconds.
Warning: Simulation tolerance relaxed to achieve convergence from 3.0183655606653704e-07 to 3.0183655606753702e-07 seconds.
Warning: Simulation tolerance relaxed to achieve convergence from 3.0183655809953703e-07 to 3.0183655810053700e-07 seconds.
Warning: Simulation tolerance relaxed to achieve convergence from 3.0183655810053700e-07 to 3.0183655810153698e-07 seconds.
Warning: Simulation tolerance relaxed to achieve convergence from 3.0183655811253692e-07 to 3.0183655811353689e-07 seconds.
Warning: Simulation tolerance relaxed to achieve convergence from 3.0183655814653682e-07 to 3.0183655814753680e-07 seconds.
Warning: Simulation tolerance relaxed to achieve convergence from 3.0183655815653679e-07 to 3.0183655815753676e-07 seconds.
Warning: Simulation tolerance relaxed to achieve convergence from 3.0183656255653689e-07 to 3.0183656255753686e-07 seconds.
Warning: Simulation tolerance relaxed to achieve convergence from 3.0183713720153682e-07 to 3.0183713720253680e-07 seconds.
Warning: Simulation tolerance relaxed to achieve convergence from 3.0183713734353682e-07 to 3.0183713734453679e-07 seconds.
Warning: Simulation tolerance relaxed to achieve convergence from 3.0183713735353678e-07 to 3.0183713735453676e-07 seconds.
Warning: Simulation tolerance relaxed to achieve convergence from 3.0183713755353656e-07 to 3.0183713755453653e-07 seconds.
Warning: Simulation tolerance relaxed to achieve convergence from 3.0183713937653638e-07 to 3.0183713937753635e-07 seconds.
Warning: Simulation tolerance relaxed to achieve convergence from 3.0183713941453634e-07 to 3.0183713941553632e-07 seconds.
Warning: Simulation tolerance relaxed to achieve convergence from 3.0183713968053635e-07 to 3.0183713968153632e-07 seconds.
Warning: Simulation tolerance relaxed to achieve convergence from 3.0183714001053636e-07 to 3.0183714001153633e-07 seconds.
Warning: Simulation tolerance relaxed to achieve convergence from 3.0183714001153633e-07 to 3.0183714001253631e-07 seconds.
Warning: Simulation tolerance relaxed to achieve convergence from 3.0183714006153627e-07 to 3.0183714006253624e-07 seconds.
Warning: Simulation tolerance relaxed to achieve convergence from 3.0183714163253627e-07 to 3.0183714163353624e-07 seconds.
Warning: Simulation tolerance relaxed to achieve convergence from 3.0183714163353624e-07 to 3.0183714163453622e-07 seconds.
Warning: Simulation tolerance relaxed to achieve convergence from 3.0183714186653611e-07 to 3.0183714186753608e-07 seconds.
Warning: Simulation tolerance relaxed to achieve convergence from 3.0183714186953608e-07 to 3.0183714187053606e-07 seconds.
Warning: Simulation tolerance relaxed to achieve convergence from 3.0183714187553604e-07 to 3.0183714187653602e-07 seconds.
Warning: Simulation tolerance relaxed to achieve convergence from 3.0183714187853602e-07 to 3.0183714187953600e-07 seconds.
Warning: Simulation tolerance relaxed to achieve convergence from 3.0183714190853592e-07 to 3.0183714190953589e-07 seconds.
Warning: Simulation tolerance relaxed to achieve convergence from 3.0183714192553592e-07 to 3.0183714192653590e-07 seconds.
Warning: Simulation tolerance relaxed to achieve convergence from 3.0183714285253598e-07 to 3.0183714285353595e-07 seconds.
Warning: Simulation tolerance relaxed to achieve convergence from 3.0183714944653596e-07 to 3.0183714944753594e-07 seconds.
Warning: Simulation tolerance relaxed to achieve convergence from 3.0183714944953594e-07 to 3.0183714945053591e-07 seconds.
Warning: Simulation tolerance relaxed to achieve convergence from 3.0183715018453591e-07 to 3.0183715018553589e-07 seconds.
Warning: Simulation tolerance relaxed to achieve convergence from 3.0183716881653590e-07 to 3.0183716881753588e-07 seconds.
Warning: Simulation tolerance relaxed to achieve convergence from 3.0183717013953577e-07 to 3.0183717014053575e-07 seconds.
Warning: Simulation tolerance relaxed to achieve convergence from 3.0183717032353558e-07 to 3.0183717032453555e-07 seconds.
Warning: Simulation tolerance relaxed to achieve convergence from 3.0183717042253552e-07 to 3.0183717042353549e-07 seconds.
Warning: Simulation tolerance relaxed to achieve convergence from 3.0183717163753546e-07 to 3.0183717163853543e-07 seconds.
Warning: Simulation tolerance relaxed to achieve convergence from 3.0183717164153541e-07 to 3.0183717164253539e-07 seconds.
Warning: Simulation tolerance relaxed to achieve convergence from 3.0183717212953523e-07 to 3.0183717213053521e-07 seconds.
Warning: Simulation tolerance relaxed to achieve convergence from 3.0183717213353519e-07 to 3.0183717213453516e-07 seconds.
Warning: Simulation tolerance relaxed to achieve convergence from 3.0183717227453510e-07 to 3.0183717227553507e-07 seconds.
Warning: Simulation tolerance relaxed to achieve convergence from 3.0183717248153492e-07 to 3.0183717248253489e-07 seconds.
Warning: Simulation tolerance relaxed to achieve convergence from 3.0183717252553489e-07 to 3.0183717252653486e-07 seconds.
Warning: Simulation tolerance relaxed to achieve convergence from 3.0183717259453451e-07 to 3.0183717259553449e-07 seconds.
Warning: Simulation tolerance relaxed to achieve convergence from 3.0183717283353449e-07 to 3.0183717283453447e-07 seconds.
Warning: Simulation tolerance relaxed to achieve convergence from 3.0183717285853446e-07 to 3.0183717285953443e-07 seconds.
Warning: Simulation tolerance relaxed to achieve convergence from 3.0183717285953443e-07 to 3.0183717286053441e-07 seconds.
Warning: Simulation tolerance relaxed to achieve convergence from 3.0183717334853444e-07 to 3.0183717334953442e-07 seconds.
Warning: Simulation tolerance relaxed to achieve convergence from 3.0183717391153437e-07 to 3.0183717391253435e-07 seconds.
Warning: Simulation tolerance relaxed to achieve convergence from 3.0183717391953433e-07 to 3.0183717392053431e-07 seconds.
Warning: Simulation tolerance relaxed to achieve convergence from 3.0183717392053431e-07 to 3.0183717392153428e-07 seconds.
Warning: Simulation tolerance relaxed to achieve convergence from 3.0183717463753430e-07 to 3.0183717463853428e-07 seconds.
Warning: Simulation tolerance relaxed to achieve convergence from 3.0183717470653424e-07 to 3.0183717470753422e-07 seconds.
Warning: Simulation tolerance relaxed to achieve convergence from 3.0183717470753422e-07 to 3.0183717470853419e-07 seconds.
Warning: Simulation tolerance relaxed to achieve convergence from 3.0183722318653433e-07 to 3.0183722318753431e-07 seconds.
Warning: Simulation tolerance relaxed to achieve convergence from 3.0183722319553427e-07 to 3.0183722319653424e-07 seconds.
Warning: Simulation tolerance relaxed to achieve convergence from 3.0183722354853414e-07 to 3.0183722354953411e-07 seconds.
Warning: Simulation tolerance relaxed to achieve convergence from 3.0183722358253409e-07 to 3.0183722358353407e-07 seconds.
Warning: Simulation tolerance relaxed to achieve convergence from 3.0183722374353409e-07 to 3.0183722374453407e-07 seconds.
Warning: Simulation tolerance relaxed to achieve convergence from 3.0183722375453403e-07 to 3.0183722375553401e-07 seconds.
Warning: Simulation tolerance relaxed to achieve convergence from 3.0183722375553401e-07 to 3.0183722375653398e-07 seconds.
Warning: Simulation tolerance relaxed to achieve convergence from 3.0183722382653379e-07 to 3.0183722382753377e-07 seconds.
Warning: Simulation tolerance relaxed to achieve convergence from 3.0183722384153368e-07 to 3.0183722384253366e-07 seconds.
Warning: Simulation tolerance relaxed to achieve convergence from 3.0183722385553366e-07 to 3.0183722385653363e-07 seconds.
Warning: Simulation tolerance relaxed to achieve convergence from 3.0183722386453359e-07 to 3.0183722386553357e-07 seconds.
Warning: Simulation tolerance relaxed to achieve convergence from 3.0183722393953344e-07 to 3.0183722394053341e-07 seconds.
Warning: Simulation tolerance relaxed to achieve convergence from 3.0183722398553336e-07 to 3.0183722398653334e-07 seconds.
Warning: Simulation tolerance relaxed to achieve convergence from 3.0183722402153327e-07 to 3.0183722402253324e-07 seconds.
Warning: Simulation tolerance relaxed to achieve convergence from 3.0183722404653313e-07 to 3.0183722404753310e-07 seconds.
Warning: Simulation tolerance relaxed to achieve convergence from 3.0183722422753300e-07 to 3.0183722422853298e-07 seconds.
Warning: Simulation tolerance relaxed to achieve convergence from 3.0183722422953296e-07 to 3.0183722423053293e-07 seconds.
Warning: Simulation tolerance relaxed to achieve convergence from 3.0183722430153287e-07 to 3.0183722430253285e-07 seconds.
Warning: Simulation tolerance relaxed to achieve convergence from 3.0183722430853286e-07 to 3.0183722430953283e-07 seconds.
Warning: Simulation tolerance relaxed to achieve convergence from 3.0183722433953284e-07 to 3.0183722434053281e-07 seconds.
Warning: Simulation tolerance relaxed to achieve convergence from 3.0183722441353276e-07 to 3.0183722441453273e-07 seconds.
Warning: Simulation tolerance relaxed to achieve convergence from 3.0183722447253268e-07 to 3.0183722447353265e-07 seconds.
Warning: Simulation tolerance relaxed to achieve convergence from 3.0183722447953267e-07 to 3.0183722448053264e-07 seconds.
Warning: Simulation tolerance relaxed to achieve convergence from 3.0183722449453267e-07 to 3.0183722449553264e-07 seconds.
Warning: Simulation tolerance relaxed to achieve convergence from 3.0183722475353268e-07 to 3.0183722475453266e-07 seconds.
Warning: Simulation tolerance relaxed to achieve convergence from 3.0183722476953266e-07 to 3.0183722477053263e-07 seconds.
Warning: Simulation tolerance relaxed to achieve convergence from 3.0183722477553256e-07 to 3.0183722477653254e-07 seconds.
Warning: Simulation tolerance relaxed to achieve convergence from 3.0183722559453253e-07 to 3.0183722559553251e-07 seconds.
Warning: Simulation tolerance relaxed to achieve convergence from 3.0183722573253241e-07 to 3.0183722573353239e-07 seconds.
Warning: Simulation tolerance relaxed to achieve convergence from 3.0183722575153226e-07 to 3.0183722575253223e-07 seconds.
Warning: Simulation tolerance relaxed to achieve convergence from 3.0183722679053225e-07 to 3.0183722679153223e-07 seconds.
Warning: Simulation tolerance relaxed to achieve convergence from 3.0183722682453221e-07 to 3.0183722682553218e-07 seconds.
Warning: Simulation tolerance relaxed to achieve convergence from 3.0183722683253217e-07 to 3.0183722683353215e-07 seconds.
Warning: Simulation tolerance relaxed to achieve convergence from 3.0183723115953206e-07 to 3.0183723116053204e-07 seconds.
Warning: Simulation tolerance relaxed to achieve convergence from 3.0183723117453206e-07 to 3.0183723117553204e-07 seconds.
Warning: Simulation tolerance relaxed to achieve convergence from 3.0183724165453201e-07 to 3.0183724165553199e-07 seconds.
Warning: Simulation tolerance relaxed to achieve convergence from 3.0183724199753186e-07 to 3.0183724199853184e-07 seconds.
Warning: Simulation tolerance relaxed to achieve convergence from 3.0183724240453167e-07 to 3.0183724240553164e-07 seconds.
Warning: Simulation tolerance relaxed to achieve convergence from 3.0183724241053157e-07 to 3.0183724241153155e-07 seconds.
Warning: Simulation tolerance relaxed to achieve convergence from 3.0183724241153155e-07 to 3.0183724241253152e-07 seconds.
Warning: Simulation tolerance relaxed to achieve convergence from 3.0183724256953125e-07 to 3.0183724257053123e-07 seconds.
Warning: Simulation tolerance relaxed to achieve convergence from 3.0183724263553121e-07 to 3.0183724263653119e-07 seconds.
Warning: Simulation tolerance relaxed to achieve convergence from 3.0183724263853119e-07 to 3.0183724263953117e-07 seconds.
Warning: Simulation tolerance relaxed to achieve convergence from 3.0183724265953120e-07 to 3.0183724266053118e-07 seconds.
Warning: Simulation tolerance relaxed to achieve convergence from 3.0183724266253118e-07 to 3.0183724266353116e-07 seconds.
Warning: Simulation tolerance relaxed to achieve convergence from 3.0183724267153112e-07 to 3.0183724267253109e-07 seconds.
Warning: Simulation tolerance relaxed to achieve convergence from 3.0183724495853103e-07 to 3.0183724495953101e-07 seconds.
Warning: Simulation tolerance relaxed to achieve convergence from 3.0183724496153101e-07 to 3.0183724496253099e-07 seconds.
Warning: Simulation tolerance relaxed to achieve convergence from 3.0183724499853100e-07 to 3.0183724499953098e-07 seconds.
Warning: Simulation tolerance relaxed to achieve convergence from 3.0183724503053100e-07 to 3.0183724503153098e-07 seconds.
Warning: Simulation tolerance relaxed to achieve convergence from 3.0183724506253096e-07 to 3.0183724506353093e-07 seconds.
Warning: Simulation tolerance relaxed to achieve convergence from 3.0183724506353093e-07 to 3.0183724506453091e-07 seconds.
Warning: Simulation tolerance relaxed to achieve convergence from 3.0183724508253083e-07 to 3.0183724508353081e-07 seconds.
Warning: Simulation tolerance relaxed to achieve convergence from 3.0183729183453077e-07 to 3.0183729183553074e-07 seconds.
Warning: Simulation tolerance relaxed to achieve convergence from 3.0183729204953071e-07 to 3.0183729205053068e-07 seconds.
Warning: Simulation tolerance relaxed to achieve convergence from 3.0183729207053072e-07 to 3.0183729207153069e-07 seconds.
Warning: Simulation tolerance relaxed to achieve convergence from 3.0183729207253067e-07 to 3.0183729207353064e-07 seconds.
Warning: Simulation tolerance relaxed to achieve convergence from 3.0183729207553065e-07 to 3.0183729207653062e-07 seconds.
Warning: Simulation tolerance relaxed to achieve convergence from 3.0183729538253071e-07 to 3.0183729538353068e-07 seconds.
Warning: Simulation tolerance relaxed to achieve convergence from 3.0183729538553069e-07 to 3.0183729538653066e-07 seconds.
Warning: Simulation tolerance relaxed to achieve convergence from 3.0183729538653066e-07 to 3.0183729538753064e-07 seconds.
Warning: Simulation tolerance relaxed to achieve convergence from 3.0183729539053062e-07 to 3.0183729539153059e-07 seconds.
Warning: Simulation tolerance relaxed to achieve convergence from 3.0183729540053058e-07 to 3.0183729540153056e-07 seconds.
Warning: Simulation tolerance relaxed to achieve convergence from 3.0183729540153056e-07 to 3.0183729540253053e-07 seconds.
Warning: Simulation tolerance relaxed to achieve convergence from 3.0183739459453045e-07 to 3.0183739459553042e-07 seconds.
Warning: Simulation tolerance relaxed to achieve convergence from 3.0183739459753042e-07 to 3.0183739459853040e-07 seconds.
Warning: Simulation tolerance relaxed to achieve convergence from 3.0183739462153041e-07 to 3.0183739462253039e-07 seconds.
Warning: Simulation tolerance relaxed to achieve convergence from 3.0183739464253043e-07 to 3.0183739464353040e-07 seconds.
Warning: Simulation tolerance relaxed to achieve convergence from 3.0183739669353045e-07 to 3.0183739669453042e-07 seconds.
Warning: Simulation tolerance relaxed to achieve convergence from 3.0183739699553041e-07 to 3.0183739699653038e-07 seconds.
Warning: Simulation tolerance relaxed to achieve convergence from 3.0183739700253029e-07 to 3.0183739700353026e-07 seconds.
Warning: Simulation tolerance relaxed to achieve convergence from 3.0183739714053011e-07 to 3.0183739714153009e-07 seconds.
Warning: Simulation tolerance relaxed to achieve convergence from 3.0183739760253010e-07 to 3.0183739760353008e-07 seconds.
Warning: Simulation tolerance relaxed to achieve convergence from 3.0183739761953000e-07 to 3.0183739762052997e-07 seconds.
Warning: Simulation tolerance relaxed to achieve convergence from 3.0183739762252998e-07 to 3.0183739762352995e-07 seconds.
Warning: Simulation tolerance relaxed to achieve convergence from 3.0183739831652996e-07 to 3.0183739831752993e-07 seconds.
Warning: Simulation tolerance relaxed to achieve convergence from 3.0183739839852963e-07 to 3.0183739839952960e-07 seconds.
Warning: Simulation tolerance relaxed to achieve convergence from 3.0183739853752938e-07 to 3.0183739853852935e-07 seconds.
Warning: Simulation tolerance relaxed to achieve convergence from 3.0183739871152916e-07 to 3.0183739871252914e-07 seconds.
Warning: Simulation tolerance relaxed to achieve convergence from 3.0183739910352907e-07 to 3.0183739910452905e-07 seconds.
Warning: Simulation tolerance relaxed to achieve convergence from 3.0183739911052906e-07 to 3.0183739911152904e-07 seconds.
Warning: Simulation tolerance relaxed to achieve convergence from 3.0183739912352900e-07 to 3.0183739912452898e-07 seconds.
Warning: Simulation tolerance relaxed to achieve convergence from 3.0183739967352889e-07 to 3.0183739967452886e-07 seconds.
Warning: Simulation tolerance relaxed to achieve convergence from 3.0183749217252882e-07 to 3.0183749217352880e-07 seconds.
Warning: Simulation tolerance relaxed to achieve convergence from 3.0183749217652878e-07 to 3.0183749217752875e-07 seconds.
Warning: Simulation tolerance relaxed to achieve convergence from 3.0183749300752866e-07 to 3.0183749300852864e-07 seconds.
Warning: Simulation tolerance relaxed to achieve convergence from 3.0183749777352863e-07 to 3.0183749777452860e-07 seconds.
Warning: Simulation tolerance relaxed to achieve convergence from 3.0183749777552858e-07 to 3.0183749777652855e-07 seconds.
Warning: Simulation tolerance relaxed to achieve convergence from 3.0183760920152848e-07 to 3.0183760920252845e-07 seconds.
Warning: Simulation tolerance relaxed to achieve convergence from 3.0183760920452840e-07 to 3.0183760920552838e-07 seconds.
Warning: Simulation tolerance relaxed to achieve convergence from 3.0183760921452837e-07 to 3.0183760921552834e-07 seconds.
Warning: Simulation tolerance relaxed to achieve convergence from 3.0183760926452825e-07 to 3.0183760926552822e-07 seconds.
Warning: Simulation tolerance relaxed to achieve convergence from 3.0183760926552822e-07 to 3.0183760926652820e-07 seconds.
Warning: Simulation tolerance relaxed to achieve convergence from 3.0183761009052799e-07 to 3.0183761009152797e-07 seconds.
Warning: Simulation tolerance relaxed to achieve convergence from 3.0183761009352797e-07 to 3.0183761009452794e-07 seconds.
Warning: Simulation tolerance relaxed to achieve convergence from 3.0183761082852768e-07 to 3.0183761082952766e-07 seconds.
Warning: Simulation tolerance relaxed to achieve convergence from 3.0183761082952766e-07 to 3.0183761083052763e-07 seconds.
Warning: Simulation tolerance relaxed to achieve convergence from 3.0183761596152749e-07 to 3.0183761596252746e-07 seconds.
Warning: Simulation tolerance relaxed to achieve convergence from 3.0183761924452745e-07 to 3.0183761924552743e-07 seconds.
Warning: Simulation tolerance relaxed to achieve convergence from 3.0183761924952738e-07 to 3.0183761925052736e-07 seconds.
Warning: Simulation tolerance relaxed to achieve convergence from 3.0183761926052732e-07 to 3.0183761926152730e-07 seconds.
Warning: Simulation tolerance relaxed to achieve convergence from 3.0183761971552711e-07 to 3.0183761971652709e-07 seconds.
Warning: Simulation tolerance relaxed to achieve convergence from 3.0183761973252712e-07 to 3.0183761973352709e-07 seconds.
Warning: Simulation tolerance relaxed to achieve convergence from 3.0183761973952710e-07 to 3.0183761974052708e-07 seconds.
Warning: Simulation tolerance relaxed to achieve convergence from 3.0183761974952701e-07 to 3.0183761975052699e-07 seconds.
Warning: Simulation tolerance relaxed to achieve convergence from 3.0183761982552694e-07 to 3.0183761982652692e-07 seconds.
Warning: Simulation tolerance relaxed to achieve convergence from 3.0183761983452688e-07 to 3.0183761983552685e-07 seconds.
Warning: Simulation tolerance relaxed to achieve convergence from 3.0183767951752687e-07 to 3.0183767951852684e-07 seconds.
Warning: Simulation tolerance relaxed to achieve convergence from 3.0183767951852684e-07 to 3.0183767951952682e-07 seconds.
Warning: Simulation tolerance relaxed to achieve convergence from 3.0183767964352678e-07 to 3.0183767964452675e-07 seconds.
Warning: Simulation tolerance relaxed to achieve convergence from 3.0183767966152665e-07 to 3.0183767966252663e-07 seconds.
Warning: Simulation tolerance relaxed to achieve convergence from 3.0183767971252640e-07 to 3.0183767971352637e-07 seconds.
Warning: Simulation tolerance relaxed to achieve convergence from 3.0183767999452632e-07 to 3.0183767999552630e-07 seconds.
Warning: Simulation tolerance relaxed to achieve convergence from 3.0183768016552624e-07 to 3.0183768016652621e-07 seconds.
Warning: Simulation tolerance relaxed to achieve convergence from 3.0183768023152620e-07 to 3.0183768023252617e-07 seconds.
Warning: Simulation tolerance relaxed to achieve convergence from 3.0183768061852618e-07 to 3.0183768061952615e-07 seconds.
Warning: Simulation tolerance relaxed to achieve convergence from 3.0183768061952615e-07 to 3.0183768062052613e-07 seconds.
Warning: Simulation tolerance relaxed to achieve convergence from 3.0183768063552613e-07 to 3.0183768063652611e-07 seconds.
Warning: Simulation tolerance relaxed to achieve convergence from 3.0183768064252612e-07 to 3.0183768064352609e-07 seconds.
Warning: Simulation tolerance relaxed to achieve convergence from 3.0183772897952602e-07 to 3.0183772898052600e-07 seconds.
Warning: Simulation tolerance relaxed to achieve convergence from 3.0183772900052588e-07 to 3.0183772900152585e-07 seconds.
Warning: Simulation tolerance relaxed to achieve convergence from 3.0183772902852572e-07 to 3.0183772902952569e-07 seconds.
Warning: Simulation tolerance relaxed to achieve convergence from 3.0183772911952569e-07 to 3.0183772912052567e-07 seconds.
Warning: Simulation tolerance relaxed to achieve convergence from 3.0183772912652568e-07 to 3.0183772912752566e-07 seconds.
Warning: Simulation tolerance relaxed to achieve convergence from 3.0183772913252564e-07 to 3.0183772913352561e-07 seconds.
Warning: Simulation tolerance relaxed to achieve convergence from 3.0183772913952557e-07 to 3.0183772914052555e-07 seconds.
Warning: Simulation tolerance relaxed to achieve convergence from 3.0183772922052543e-07 to 3.0183772922152540e-07 seconds.
Warning: Simulation tolerance relaxed to achieve convergence from 3.0183772922452538e-07 to 3.0183772922552536e-07 seconds.
Warning: Simulation tolerance relaxed to achieve convergence from 3.0183772923152537e-07 to 3.0183772923252534e-07 seconds.
Warning: Simulation tolerance relaxed to achieve convergence from 3.0183772983752530e-07 to 3.0183772983852527e-07 seconds.
Warning: Simulation tolerance relaxed to achieve convergence from 3.0183772983952525e-07 to 3.0183772984052522e-07 seconds.
Warning: Simulation tolerance relaxed to achieve convergence from 3.0183772986852522e-07 to 3.0183772986952519e-07 seconds.
Warning: Simulation tolerance relaxed to achieve convergence from 3.0183772987152520e-07 to 3.0183772987252517e-07 seconds.
Warning: Simulation tolerance relaxed to achieve convergence from 3.0183772987252517e-07 to 3.0183772987352515e-07 seconds.
Warning: Simulation tolerance relaxed to achieve convergence from 3.0183773071252515e-07 to 3.0183773071352513e-07 seconds.
Warning: Simulation tolerance relaxed to achieve convergence from 3.0183773071452510e-07 to 3.0183773071552508e-07 seconds.
Warning: Simulation tolerance relaxed to achieve convergence from 3.0183773091052503e-07 to 3.0183773091152501e-07 seconds.
Warning: Simulation tolerance relaxed to achieve convergence from 3.0183773091452499e-07 to 3.0183773091552496e-07 seconds.
Warning: Simulation tolerance relaxed to achieve convergence from 3.0183773093152483e-07 to 3.0183773093252481e-07 seconds.
Warning: Simulation tolerance relaxed to achieve convergence from 3.0183773218752482e-07 to 3.0183773218852480e-07 seconds.
Warning: Simulation tolerance relaxed to achieve convergence from 3.0183773219052475e-07 to 3.0183773219152472e-07 seconds.
Warning: Simulation tolerance relaxed to achieve convergence from 3.0183773219252470e-07 to 3.0183773219352467e-07 seconds.
Warning: Simulation tolerance relaxed to achieve convergence from 3.0183773236252469e-07 to 3.0183773236352466e-07 seconds.
Warning: Simulation tolerance relaxed to achieve convergence from 3.0183773236352466e-07 to 3.0183773236452464e-07 seconds.
Warning: Simulation tolerance relaxed to achieve convergence from 3.0186407330952462e-07 to 3.0186407331052459e-07 seconds.
Warning: Simulation tolerance relaxed to achieve convergence from 3.0186407332752449e-07 to 3.0186407332852446e-07 seconds.
Warning: Simulation tolerance relaxed to achieve convergence from 3.0186407333452447e-07 to 3.0186407333552445e-07 seconds.
Warning: Simulation tolerance relaxed to achieve convergence from 3.0186407334552442e-07 to 3.0186407334652439e-07 seconds.
Warning: Simulation tolerance relaxed to achieve convergence from 3.0186407338852425e-07 to 3.0186407338952423e-07 seconds.
Warning: Simulation tolerance relaxed to achieve convergence from 3.0186407339252421e-07 to 3.0186407339352418e-07 seconds.
Warning: Simulation tolerance relaxed to achieve convergence from 3.0186407339552413e-07 to 3.0186407339652411e-07 seconds.
Warning: Simulation tolerance relaxed to achieve convergence from 3.0186407340152409e-07 to 3.0186407340252407e-07 seconds.
Warning: Simulation tolerance relaxed to achieve convergence from 3.0186407360952399e-07 to 3.0186407361052397e-07 seconds.
Warning: Simulation tolerance relaxed to achieve convergence from 3.0186407419052401e-07 to 3.0186407419152398e-07 seconds.
Warning: Simulation tolerance relaxed to achieve convergence from 3.0186407497252383e-07 to 3.0186407497352380e-07 seconds.
Warning: Simulation tolerance relaxed to achieve convergence from 3.0186407501652370e-07 to 3.0186407501752367e-07 seconds.
Warning: Simulation tolerance relaxed to achieve convergence from 3.0186407538652362e-07 to 3.0186407538752360e-07 seconds.
Warning: Simulation tolerance relaxed to achieve convergence from 3.0186407541352349e-07 to 3.0186407541452346e-07 seconds.
Warning: Simulation tolerance relaxed to achieve convergence from 3.0186407541652341e-07 to 3.0186407541752339e-07 seconds.
Warning: Simulation tolerance relaxed to achieve convergence from 3.0186408368852335e-07 to 3.0186408368952332e-07 seconds.
Warning: Simulation tolerance relaxed to achieve convergence from 3.0186412882552331e-07 to 3.0186412882652329e-07 seconds.
Warning: Simulation tolerance relaxed to achieve convergence from 3.0186412887852322e-07 to 3.0186412887952320e-07 seconds.
Warning: Simulation tolerance relaxed to achieve convergence from 3.0186412888152320e-07 to 3.0186412888252317e-07 seconds.
Warning: Simulation tolerance relaxed to achieve convergence from 3.0186412890152313e-07 to 3.0186412890252310e-07 seconds.
Warning: Simulation tolerance relaxed to achieve convergence from 3.0186412890452311e-07 to 3.0186412890552308e-07 seconds.
Warning: Simulation tolerance relaxed to achieve convergence from 3.0186412898152306e-07 to 3.0186412898252304e-07 seconds.
Warning: Simulation tolerance relaxed to achieve convergence from 3.0186412910352302e-07 to 3.0186412910452299e-07 seconds.
Warning: Simulation tolerance relaxed to achieve convergence from 3.0186412912252297e-07 to 3.0186412912352295e-07 seconds.
Warning: Simulation tolerance relaxed to achieve convergence from 3.0186412912352295e-07 to 3.0186412912452292e-07 seconds.
Warning: Simulation tolerance relaxed to achieve convergence from 3.0186412914752288e-07 to 3.0186412914852286e-07 seconds.
Warning: Simulation tolerance relaxed to achieve convergence from 3.0186412915352284e-07 to 3.0186412915452282e-07 seconds.
Warning: Simulation tolerance relaxed to achieve convergence from 3.0186412916952282e-07 to 3.0186412917052279e-07 seconds.
Warning: Simulation tolerance relaxed to achieve convergence from 3.0186412917452275e-07 to 3.0186412917552272e-07 seconds.
Warning: Simulation tolerance relaxed to achieve convergence from 3.0186412918052265e-07 to 3.0186412918152263e-07 seconds.
Warning: Simulation tolerance relaxed to achieve convergence from 3.0186412923652260e-07 to 3.0186412923752257e-07 seconds.
Warning: Simulation tolerance relaxed to achieve convergence from 3.0186412924152247e-07 to 3.0186412924252245e-07 seconds.
Warning: Simulation tolerance relaxed to achieve convergence from 3.0186412926352246e-07 to 3.0186412926452243e-07 seconds.
Warning: Simulation tolerance relaxed to achieve convergence from 3.0186432353252251e-07 to 3.0186432353352248e-07 seconds.
Warning: Simulation tolerance relaxed to achieve convergence from 3.0186432353552249e-07 to 3.0186432353652246e-07 seconds.
Warning: Simulation tolerance relaxed to achieve convergence from 3.0186433166552249e-07 to 3.0186433166652246e-07 seconds.
Warning: Simulation tolerance relaxed to achieve convergence from 3.0186435233952250e-07 to 3.0186435234052248e-07 seconds.
Warning: Simulation tolerance relaxed to achieve convergence from 3.0186435234452243e-07 to 3.0186435234552241e-07 seconds.
Warning: Simulation tolerance relaxed to achieve convergence from 3.0186435339352239e-07 to 3.0186435339452237e-07 seconds.
Warning: Simulation tolerance relaxed to achieve convergence from 3.0186435339652237e-07 to 3.0186435339752235e-07 seconds.
Warning: Simulation tolerance relaxed to achieve convergence from 3.0186435358552237e-07 to 3.0186435358652235e-07 seconds.
Warning: Simulation tolerance relaxed to achieve convergence from 3.0186435384552236e-07 to 3.0186435384652234e-07 seconds.
Warning: Simulation tolerance relaxed to achieve convergence from 3.0186435385552233e-07 to 3.0186435385652230e-07 seconds.
Warning: Simulation tolerance relaxed to achieve convergence from 3.0186582288452228e-07 to 3.0186582288552226e-07 seconds.
Warning: Simulation tolerance relaxed to achieve convergence from 3.0186582409952212e-07 to 3.0186582410052209e-07 seconds.
Warning: Simulation tolerance relaxed to achieve convergence from 3.0186582414552204e-07 to 3.0186582414652202e-07 seconds.
Warning: Simulation tolerance relaxed to achieve convergence from 3.0186582441152183e-07 to 3.0186582441252181e-07 seconds.
Warning: Simulation tolerance relaxed to achieve convergence from 3.0186582465952165e-07 to 3.0186582466052162e-07 seconds.
Warning: Simulation tolerance relaxed to achieve convergence from 3.0186582467252154e-07 to 3.0186582467352151e-07 seconds.
Warning: Simulation tolerance relaxed to achieve convergence from 3.0186582539052146e-07 to 3.0186582539152143e-07 seconds.
Warning: Simulation tolerance relaxed to achieve convergence from 3.0186582539252141e-07 to 3.0186582539352138e-07 seconds.
Warning: Simulation tolerance relaxed to achieve convergence from 3.0186582775452143e-07 to 3.0186582775552141e-07 seconds.
Warning: Simulation tolerance relaxed to achieve convergence from 3.0186582788152137e-07 to 3.0186582788252134e-07 seconds.
Warning: Simulation tolerance relaxed to achieve convergence from 3.0186582788452135e-07 to 3.0186582788552132e-07 seconds.
Warning: Simulation tolerance relaxed to achieve convergence from 3.0186582788752133e-07 to 3.0186582788852130e-07 seconds.
Warning: Simulation tolerance relaxed to achieve convergence from 3.0186582790552131e-07 to 3.0186582790652128e-07 seconds.
Warning: Simulation tolerance relaxed to achieve convergence from 3.0186582855352131e-07 to 3.0186582855452129e-07 seconds.
Warning: Simulation tolerance relaxed to achieve convergence from 3.0186582864152120e-07 to 3.0186582864252118e-07 seconds.
Warning: Simulation tolerance relaxed to achieve convergence from 3.0186582865552112e-07 to 3.0186582865652110e-07 seconds.
Warning: Simulation tolerance relaxed to achieve convergence from 3.0186591156652108e-07 to 3.0186591156752105e-07 seconds.
Warning: Simulation tolerance relaxed to achieve convergence from 3.0186591157352101e-07 to 3.0186591157452099e-07 seconds.
Warning: Simulation tolerance relaxed to achieve convergence from 3.0186591157752097e-07 to 3.0186591157852094e-07 seconds.
Warning: Simulation tolerance relaxed to achieve convergence from 3.0186591190752093e-07 to 3.0186591190852090e-07 seconds.
Warning: Simulation tolerance relaxed to achieve convergence from 3.0186591193952088e-07 to 3.0186591194052085e-07 seconds.
Warning: Simulation tolerance relaxed to achieve convergence from 3.0186591194152083e-07 to 3.0186591194252080e-07 seconds.
Warning: Simulation tolerance relaxed to achieve convergence from 3.0186591197852076e-07 to 3.0186591197952074e-07 seconds.
Warning: Simulation tolerance relaxed to achieve convergence from 3.0186591393152066e-07 to 3.0186591393252063e-07 seconds.
Warning: Simulation tolerance relaxed to achieve convergence from 3.0186591395952060e-07 to 3.0186591396052058e-07 seconds.
Warning: Simulation tolerance relaxed to achieve convergence from 3.0186591400552058e-07 to 3.0186591400652056e-07 seconds.
Warning: Simulation tolerance relaxed to achieve convergence from 3.0186591509452061e-07 to 3.0186591509552059e-07 seconds.
Warning: Simulation tolerance relaxed to achieve convergence from 3.0186591510152060e-07 to 3.0186591510252057e-07 seconds.
Warning: Simulation tolerance relaxed to achieve convergence from 3.0186591510652053e-07 to 3.0186591510752050e-07 seconds.
Warning: Simulation tolerance relaxed to achieve convergence from 3.0186591511152046e-07 to 3.0186591511252043e-07 seconds.
Warning: Simulation tolerance relaxed to achieve convergence from 3.0186591512852030e-07 to 3.0186591512952028e-07 seconds.
Warning: Simulation tolerance relaxed to achieve convergence from 3.0186591515052018e-07 to 3.0186591515152016e-07 seconds.
Warning: Simulation tolerance relaxed to achieve convergence from 3.0186591517052011e-07 to 3.0186591517152009e-07 seconds.
Warning: Simulation tolerance relaxed to achieve convergence from 3.0186591520552004e-07 to 3.0186591520652002e-07 seconds.
Warning: Simulation tolerance relaxed to achieve convergence from 3.0186591522751998e-07 to 3.0186591522851995e-07 seconds.
Warning: Simulation tolerance relaxed to achieve convergence from 3.0186591526251996e-07 to 3.0186591526351994e-07 seconds.
Warning: Simulation tolerance relaxed to achieve convergence from 3.0186591526451991e-07 to 3.0186591526551989e-07 seconds.
Warning: Simulation tolerance relaxed to achieve convergence from 3.0186591532251991e-07 to 3.0186591532351989e-07 seconds.
Warning: Simulation tolerance relaxed to achieve convergence from 3.0186591549151971e-07 to 3.0186591549251969e-07 seconds.
Warning: Simulation tolerance relaxed to achieve convergence from 3.0186592496551975e-07 to 3.0186592496651973e-07 seconds.
Warning: Simulation tolerance relaxed to achieve convergence from 3.0186592496851973e-07 to 3.0186592496951971e-07 seconds.
Warning: Simulation tolerance relaxed to achieve convergence from 3.0186592496951971e-07 to 3.0186592497051968e-07 seconds.
Warning: Simulation tolerance relaxed to achieve convergence from 3.0186592507651950e-07 to 3.0186592507751948e-07 seconds.
Warning: Simulation tolerance relaxed to achieve convergence from 3.0186592607651951e-07 to 3.0186592607751948e-07 seconds.
Warning: Simulation tolerance relaxed to achieve convergence from 3.0186592608851942e-07 to 3.0186592608951940e-07 seconds.
Warning: Simulation tolerance relaxed to achieve convergence from 3.0186592660351937e-07 to 3.0186592660451935e-07 seconds.
Warning: Simulation tolerance relaxed to achieve convergence from 3.0186592660451935e-07 to 3.0186592660551932e-07 seconds.
Warning: Simulation tolerance relaxed to achieve convergence from 3.0186592663951933e-07 to 3.0186592664051931e-07 seconds.
Warning: Simulation tolerance relaxed to achieve convergence from 3.0186592687951918e-07 to 3.0186592688051916e-07 seconds.
Warning: Simulation tolerance relaxed to achieve convergence from 3.0186592688051916e-07 to 3.0186592688151913e-07 seconds.
Warning: Simulation tolerance relaxed to achieve convergence from 3.0186592688151913e-07 to 3.0186592688251911e-07 seconds.
Warning: Simulation tolerance relaxed to achieve convergence from 3.0186592955251916e-07 to 3.0186592955351914e-07 seconds.
Warning: Simulation tolerance relaxed to achieve convergence from 3.0186592965651914e-07 to 3.0186592965751911e-07 seconds.
Warning: Simulation tolerance relaxed to achieve convergence from 3.0186592966251909e-07 to 3.0186592966351907e-07 seconds.
Warning: Simulation tolerance relaxed to achieve convergence from 3.0186592969051904e-07 to 3.0186592969151901e-07 seconds.
Warning: Simulation tolerance relaxed to achieve convergence from 3.0186592970351898e-07 to 3.0186592970451896e-07 seconds.
Warning: Simulation tolerance relaxed to achieve convergence from 3.0186592971351895e-07 to 3.0186592971451892e-07 seconds.
Warning: Simulation tolerance relaxed to achieve convergence from 3.0186592972051893e-07 to 3.0186592972151891e-07 seconds.
Warning: Simulation tolerance relaxed to achieve convergence from 3.0186592972751892e-07 to 3.0186592972851889e-07 seconds.
Warning: Simulation tolerance relaxed to achieve convergence from 3.0186592973351888e-07 to 3.0186592973451885e-07 seconds.
Warning: Simulation tolerance relaxed to achieve convergence from 3.0186592973451885e-07 to 3.0186592973551883e-07 seconds.
Warning: Simulation tolerance relaxed to achieve convergence from 3.0186592976551878e-07 to 3.0186592976651875e-07 seconds.
Warning: Simulation tolerance relaxed to achieve convergence from 3.0186594624051871e-07 to 3.0186594624151869e-07 seconds.
Warning: Simulation tolerance relaxed to achieve convergence from 3.0186594624151869e-07 to 3.0186594624251866e-07 seconds.
Warning: Simulation tolerance relaxed to achieve convergence from 3.0186594624251866e-07 to 3.0186594624351864e-07 seconds.
Warning: Simulation tolerance relaxed to achieve convergence from 3.0186594839351854e-07 to 3.0186594839451852e-07 seconds.
Warning: Simulation tolerance relaxed to achieve convergence from 3.0186594845351849e-07 to 3.0186594845451847e-07 seconds.
Warning: Simulation tolerance relaxed to achieve convergence from 3.0186594845451847e-07 to 3.0186594845551845e-07 seconds.
Warning: Simulation tolerance relaxed to achieve convergence from 3.0186594845651842e-07 to 3.0186594845751840e-07 seconds.
Warning: Simulation tolerance relaxed to achieve convergence from 3.0186594848451815e-07 to 3.0186594848551813e-07 seconds.
Warning: Simulation tolerance relaxed to achieve convergence from 3.0186594851251810e-07 to 3.0186594851351807e-07 seconds.
Warning: Simulation tolerance relaxed to achieve convergence from 3.0186595150151806e-07 to 3.0186595150251804e-07 seconds.
Warning: Simulation tolerance relaxed to achieve convergence from 3.0186595328351789e-07 to 3.0186595328451786e-07 seconds.
Warning: Simulation tolerance relaxed to achieve convergence from 3.0186595328851782e-07 to 3.0186595328951779e-07 seconds.
Warning: Simulation tolerance relaxed to achieve convergence from 3.0186595331851771e-07 to 3.0186595331951769e-07 seconds.
Warning: Simulation tolerance relaxed to achieve convergence from 3.0186595331951769e-07 to 3.0186595332051766e-07 seconds.
Warning: Simulation tolerance relaxed to achieve convergence from 3.0186595333751756e-07 to 3.0186595333851754e-07 seconds.
Warning: Simulation tolerance relaxed to achieve convergence from 3.0186595335751749e-07 to 3.0186595335851747e-07 seconds.
Warning: Simulation tolerance relaxed to achieve convergence from 3.0186595499551738e-07 to 3.0186595499651735e-07 seconds.
Warning: Simulation tolerance relaxed to achieve convergence from 3.0186595501751736e-07 to 3.0186595501851734e-07 seconds.
Warning: Simulation tolerance relaxed to achieve convergence from 3.0186596533851737e-07 to 3.0186596533951734e-07 seconds.
Warning: Simulation tolerance relaxed to achieve convergence from 3.0186596548651727e-07 to 3.0186596548751724e-07 seconds.
Warning: Simulation tolerance relaxed to achieve convergence from 3.0186596551051726e-07 to 3.0186596551151723e-07 seconds.
Warning: Simulation tolerance relaxed to achieve convergence from 3.0186596554151707e-07 to 3.0186596554251705e-07 seconds.
Warning: Simulation tolerance relaxed to achieve convergence from 3.0186596555151704e-07 to 3.0186596555251701e-07 seconds.
Warning: Simulation tolerance relaxed to achieve convergence from 3.0186596563451700e-07 to 3.0186596563551698e-07 seconds.
Warning: Simulation tolerance relaxed to achieve convergence from 3.0186596563651695e-07 to 3.0186596563751693e-07 seconds.
Warning: Simulation tolerance relaxed to achieve convergence from 3.0186603463451699e-07 to 3.0186603463551696e-07 seconds.
Warning: Simulation tolerance relaxed to achieve convergence from 3.0186603594251691e-07 to 3.0186603594351689e-07 seconds.
Warning: Simulation tolerance relaxed to achieve convergence from 3.0186603594351689e-07 to 3.0186603594451686e-07 seconds.
Warning: Simulation tolerance relaxed to achieve convergence from 3.0186603595451678e-07 to 3.0186603595551675e-07 seconds.
Warning: Simulation tolerance relaxed to achieve convergence from 3.0186603665751680e-07 to 3.0186603665851677e-07 seconds.
Warning: Simulation tolerance relaxed to achieve convergence from 3.0186603806451682e-07 to 3.0186603806551680e-07 seconds.
Warning: Simulation tolerance relaxed to achieve convergence from 3.0186603807251678e-07 to 3.0186603807351676e-07 seconds.
Warning: Simulation tolerance relaxed to achieve convergence from 3.0186604725451662e-07 to 3.0186604725551659e-07 seconds.
Warning: Simulation tolerance relaxed to achieve convergence from 3.0186604726151660e-07 to 3.0186604726251658e-07 seconds.
Warning: Simulation tolerance relaxed to achieve convergence from 3.0186604728751644e-07 to 3.0186604728851641e-07 seconds.
Warning: Simulation tolerance relaxed to achieve convergence from 3.0186604730351641e-07 to 3.0186604730451639e-07 seconds.
Warning: Simulation tolerance relaxed to achieve convergence from 3.0186604736751637e-07 to 3.0186604736851634e-07 seconds.
Warning: Simulation tolerance relaxed to achieve convergence from 3.0186604793251630e-07 to 3.0186604793351628e-07 seconds.
Warning: Simulation tolerance relaxed to achieve convergence from 3.0186604793351628e-07 to 3.0186604793451625e-07 seconds.
Warning: Simulation tolerance relaxed to achieve convergence from 3.0186604793451625e-07 to 3.0186604793551623e-07 seconds.
Warning: Simulation tolerance relaxed to achieve convergence from 3.0186604793651620e-07 to 3.0186604793751618e-07 seconds.
Warning: Simulation tolerance relaxed to achieve convergence from 3.0186604795051618e-07 to 3.0186604795151615e-07 seconds.
Warning: Simulation tolerance relaxed to achieve convergence from 3.0186604911251615e-07 to 3.0186604911351613e-07 seconds.
Warning: Simulation tolerance relaxed to achieve convergence from 3.0186604911951609e-07 to 3.0186604912051606e-07 seconds.
Warning: Simulation tolerance relaxed to achieve convergence from 3.0186604912051606e-07 to 3.0186604912151604e-07 seconds.
Warning: Simulation tolerance relaxed to achieve convergence from 3.0186604912551594e-07 to 3.0186604912651592e-07 seconds.
Warning: Simulation tolerance relaxed to achieve convergence from 3.0186604913951586e-07 to 3.0186604914051583e-07 seconds.
Warning: Simulation tolerance relaxed to achieve convergence from 3.0186604925951571e-07 to 3.0186604926051568e-07 seconds.
Warning: Simulation tolerance relaxed to achieve convergence from 3.0186604926051568e-07 to 3.0186604926151566e-07 seconds.
Warning: Simulation tolerance relaxed to achieve convergence from 3.0191275826651577e-07 to 3.0191275826751575e-07 seconds.
Warning: Simulation tolerance relaxed to achieve convergence from 3.0191289151351572e-07 to 3.0191289151451570e-07 seconds.
Warning: Simulation tolerance relaxed to achieve convergence from 3.0191289154351567e-07 to 3.0191289154451565e-07 seconds.
Warning: Simulation tolerance relaxed to achieve convergence from 3.0191289155051566e-07 to 3.0191289155151563e-07 seconds.
Warning: Simulation tolerance relaxed to achieve convergence from 3.0191289156851564e-07 to 3.0191289156951561e-07 seconds.
Warning: Simulation tolerance relaxed to achieve convergence from 3.0191289156951561e-07 to 3.0191289157051559e-07 seconds.
Warning: Simulation tolerance relaxed to achieve convergence from 3.0191289175151557e-07 to 3.0191289175251554e-07 seconds.
Warning: Simulation tolerance relaxed to achieve convergence from 3.0191289181451550e-07 to 3.0191289181551547e-07 seconds.
Warning: Simulation tolerance relaxed to achieve convergence from 3.0191289202151542e-07 to 3.0191289202251540e-07 seconds.
Warning: Simulation tolerance relaxed to achieve convergence from 3.0191289437451540e-07 to 3.0191289437551538e-07 seconds.
Warning: Simulation tolerance relaxed to achieve convergence from 3.0191289438451537e-07 to 3.0191289438551534e-07 seconds.
Warning: Simulation tolerance relaxed to achieve convergence from 3.0191289438551534e-07 to 3.0191289438651532e-07 seconds.
Warning: Simulation tolerance relaxed to achieve convergence from 3.0191289438651532e-07 to 3.0191289438751529e-07 seconds.
Warning: Simulation tolerance relaxed to achieve convergence from 3.0191289442951532e-07 to 3.0191289443051529e-07 seconds.
Warning: Simulation tolerance relaxed to achieve convergence from 3.0191289443751528e-07 to 3.0191289443851525e-07 seconds.
Warning: Simulation tolerance relaxed to achieve convergence from 3.0191289450451521e-07 to 3.0191289450551519e-07 seconds.
Warning: Simulation tolerance relaxed to achieve convergence from 3.0191289452251514e-07 to 3.0191289452351512e-07 seconds.
Warning: Simulation tolerance relaxed to achieve convergence from 3.0191289469051507e-07 to 3.0191289469151505e-07 seconds.
Warning: Simulation tolerance relaxed to achieve convergence from 3.0191289469551500e-07 to 3.0191289469651498e-07 seconds.
Warning: Simulation tolerance relaxed to achieve convergence from 3.0191289470151496e-07 to 3.0191289470251494e-07 seconds.
Warning: Simulation tolerance relaxed to achieve convergence from 3.0191289470551486e-07 to 3.0191289470651484e-07 seconds.
Warning: Simulation tolerance relaxed to achieve convergence from 3.0191289473551470e-07 to 3.0191289473651468e-07 seconds.
Warning: Simulation tolerance relaxed to achieve convergence from 3.0191289693851426e-07 to 3.0191289693951423e-07 seconds.
Warning: Simulation tolerance relaxed to achieve convergence from 3.0191289694051421e-07 to 3.0191289694151418e-07 seconds.
Warning: Simulation tolerance relaxed to achieve convergence from 3.0191289697551419e-07 to 3.0191289697651417e-07 seconds.
Warning: Simulation tolerance relaxed to achieve convergence from 3.0191289697751414e-07 to 3.0191289697851412e-07 seconds.
Warning: Simulation tolerance relaxed to achieve convergence from 3.0191289706551404e-07 to 3.0191289706651401e-07 seconds.
Warning: Simulation tolerance relaxed to achieve convergence from 3.0191289972551386e-07 to 3.0191289972651383e-07 seconds.
Warning: Simulation tolerance relaxed to achieve convergence from 3.0191289977051386e-07 to 3.0191289977151383e-07 seconds.
Warning: Simulation tolerance relaxed to achieve convergence from 3.0191289985651386e-07 to 3.0191289985751383e-07 seconds.
Warning: Simulation tolerance relaxed to achieve convergence from 3.0191289985751383e-07 to 3.0191289985851381e-07 seconds.
Warning: Simulation tolerance relaxed to achieve convergence from 3.0191289996351376e-07 to 3.0191289996451373e-07 seconds.
Warning: Simulation tolerance relaxed to achieve convergence from 3.0191290002451374e-07 to 3.0191290002551371e-07 seconds.
Warning: Simulation tolerance relaxed to achieve convergence from 3.0191290008451358e-07 to 3.0191290008551355e-07 seconds.
Warning: Simulation tolerance relaxed to achieve convergence from 3.0191296782751365e-07 to 3.0191296782851363e-07 seconds.
Warning: Simulation tolerance relaxed to achieve convergence from 3.0191296787151352e-07 to 3.0191296787251350e-07 seconds.
Warning: Simulation tolerance relaxed to achieve convergence from 3.0191296795351335e-07 to 3.0191296795451333e-07 seconds.
Warning: Simulation tolerance relaxed to achieve convergence from 3.0191296795451333e-07 to 3.0191296795551330e-07 seconds.
Warning: Simulation tolerance relaxed to achieve convergence from 3.0191296796251329e-07 to 3.0191296796351326e-07 seconds.
Warning: Simulation tolerance relaxed to achieve convergence from 3.0191296918451322e-07 to 3.0191296918551319e-07 seconds.
Warning: Simulation tolerance relaxed to achieve convergence from 3.0191296919451313e-07 to 3.0191296919551310e-07 seconds.
Warning: Simulation tolerance relaxed to achieve convergence from 3.0191296927551309e-07 to 3.0191296927651306e-07 seconds.
Warning: Simulation tolerance relaxed to achieve convergence from 3.0191296943751296e-07 to 3.0191296943851293e-07 seconds.
Warning: Simulation tolerance relaxed to achieve convergence from 3.0191296943951291e-07 to 3.0191296944051288e-07 seconds.
Warning: Simulation tolerance relaxed to achieve convergence from 3.0191333061151299e-07 to 3.0191333061251297e-07 seconds.
Warning: Simulation tolerance relaxed to achieve convergence from 3.0191333062751297e-07 to 3.0191333062851294e-07 seconds.
Warning: Simulation tolerance relaxed to achieve convergence from 3.0191333065551286e-07 to 3.0191333065651284e-07 seconds.
Warning: Simulation tolerance relaxed to achieve convergence from 3.0191333069851286e-07 to 3.0191333069951283e-07 seconds.
Warning: Simulation tolerance relaxed to achieve convergence from 3.0191333070851282e-07 to 3.0191333070951280e-07 seconds.
Warning: Simulation tolerance relaxed to achieve convergence from 3.0191333071251278e-07 to 3.0191333071351275e-07 seconds.
Warning: Simulation tolerance relaxed to achieve convergence from 3.0191333077551276e-07 to 3.0191333077651273e-07 seconds.
Warning: Simulation tolerance relaxed to achieve convergence from 3.0191333081251264e-07 to 3.0191333081351262e-07 seconds.
Warning: Simulation tolerance relaxed to achieve convergence from 3.0191333081351262e-07 to 3.0191333081451259e-07 seconds.
Warning: Simulation tolerance relaxed to achieve convergence from 3.0191333081451259e-07 to 3.0191333081551257e-07 seconds.
Warning: Simulation tolerance relaxed to achieve convergence from 3.0191333123051249e-07 to 3.0191333123151247e-07 seconds.
Warning: Simulation tolerance relaxed to achieve convergence from 3.0191333133951229e-07 to 3.0191333134051227e-07 seconds.
Warning: Simulation tolerance relaxed to achieve convergence from 3.0191333134651228e-07 to 3.0191333134751225e-07 seconds.
Warning: Simulation tolerance relaxed to achieve convergence from 3.0191333139251226e-07 to 3.0191333139351223e-07 seconds.
Warning: Simulation tolerance relaxed to achieve convergence from 3.0191333139351223e-07 to 3.0191333139451221e-07 seconds.
Warning: Simulation tolerance relaxed to achieve convergence from 3.0191333142751213e-07 to 3.0191333142851211e-07 seconds.
Warning: Simulation tolerance relaxed to achieve convergence from 3.0191333160451206e-07 to 3.0191333160551203e-07 seconds.
Warning: Simulation tolerance relaxed to achieve convergence from 3.0191333221551191e-07 to 3.0191333221651189e-07 seconds.
Warning: Simulation tolerance relaxed to achieve convergence from 3.0191333224651189e-07 to 3.0191333224751187e-07 seconds.
Warning: Simulation tolerance relaxed to achieve convergence from 3.0191333310051190e-07 to 3.0191333310151187e-07 seconds.
Warning: Simulation tolerance relaxed to achieve convergence from 3.0191333310151187e-07 to 3.0191333310251185e-07 seconds.
Warning: Simulation tolerance relaxed to achieve convergence from 3.0191333330951172e-07 to 3.0191333331051169e-07 seconds.
Warning: Simulation tolerance relaxed to achieve convergence from 3.0191333331151167e-07 to 3.0191333331251164e-07 seconds.
Warning: Simulation tolerance relaxed to achieve convergence from 3.0191333334851160e-07 to 3.0191333334951158e-07 seconds.
Warning: Simulation tolerance relaxed to achieve convergence from 3.0191333337951153e-07 to 3.0191333338051150e-07 seconds.
Warning: Simulation tolerance relaxed to achieve convergence from 3.0191333338251150e-07 to 3.0191333338351148e-07 seconds.
Warning: Simulation tolerance relaxed to achieve convergence from 3.0191333338351148e-07 to 3.0191333338451146e-07 seconds.
Warning: Simulation tolerance relaxed to achieve convergence from 3.0191333340051143e-07 to 3.0191333340151141e-07 seconds.
Warning: Simulation tolerance relaxed to achieve convergence from 3.0191333343451139e-07 to 3.0191333343551136e-07 seconds.
Warning: Simulation tolerance relaxed to achieve convergence from 3.0191333344151137e-07 to 3.0191333344251135e-07 seconds.
Warning: Simulation tolerance relaxed to achieve convergence from 3.0191333346751121e-07 to 3.0191333346851118e-07 seconds.
Warning: Simulation tolerance relaxed to achieve convergence from 3.0191333348251116e-07 to 3.0191333348351113e-07 seconds.
Warning: Simulation tolerance relaxed to achieve convergence from 3.0191333348951114e-07 to 3.0191333349051112e-07 seconds.
Warning: Simulation tolerance relaxed to achieve convergence from 3.0191333969551111e-07 to 3.0191333969651109e-07 seconds.
Warning: Simulation tolerance relaxed to achieve convergence from 3.0191333979451100e-07 to 3.0191333979551097e-07 seconds.
Warning: Simulation tolerance relaxed to achieve convergence from 3.0191334044551093e-07 to 3.0191334044651090e-07 seconds.
Warning: Simulation tolerance relaxed to achieve convergence from 3.0191334047351071e-07 to 3.0191334047451069e-07 seconds.
Warning: Simulation tolerance relaxed to achieve convergence from 3.0191334057351052e-07 to 3.0191334057451050e-07 seconds.
Warning: Simulation tolerance relaxed to achieve convergence from 3.0191334347451054e-07 to 3.0191334347551052e-07 seconds.
Warning: Simulation tolerance relaxed to achieve convergence from 3.0191334356651039e-07 to 3.0191334356751037e-07 seconds.
Warning: Simulation tolerance relaxed to achieve convergence from 3.0191334359851029e-07 to 3.0191334359951026e-07 seconds.
Warning: Simulation tolerance relaxed to achieve convergence from 3.0191334370651017e-07 to 3.0191334370751014e-07 seconds.
Warning: Simulation tolerance relaxed to achieve convergence from 3.0191334407651020e-07 to 3.0191334407751017e-07 seconds.
Warning: Simulation tolerance relaxed to achieve convergence from 3.0191337061951024e-07 to 3.0191337062051022e-07 seconds.
Warning: Simulation tolerance relaxed to achieve convergence from 3.0191343965951035e-07 to 3.0191343966051033e-07 seconds.
Warning: Simulation tolerance relaxed to achieve convergence from 3.0191344534051030e-07 to 3.0191344534151028e-07 seconds.
Warning: Simulation tolerance relaxed to achieve convergence from 3.0191344542151026e-07 to 3.0191344542251024e-07 seconds.
Warning: Simulation tolerance relaxed to achieve convergence from 3.0191344824351032e-07 to 3.0191344824451030e-07 seconds.
Warning: Simulation tolerance relaxed to achieve convergence from 3.0191344844551026e-07 to 3.0191344844651024e-07 seconds.
Warning: Simulation tolerance relaxed to achieve convergence from 3.0191344846251027e-07 to 3.0191344846351024e-07 seconds.
Warning: Simulation tolerance relaxed to achieve convergence from 3.0191344989751018e-07 to 3.0191344989851016e-07 seconds.
Warning: Simulation tolerance relaxed to achieve convergence from 3.0191344996951005e-07 to 3.0191344997051002e-07 seconds.
Warning: Simulation tolerance relaxed to achieve convergence from 3.0191344997651003e-07 to 3.0191344997751001e-07 seconds.
Warning: Simulation tolerance relaxed to achieve convergence from 3.0191381814751017e-07 to 3.0191381814851014e-07 seconds.
Warning: Simulation tolerance relaxed to achieve convergence from 3.0191381979951013e-07 to 3.0191381980051010e-07 seconds.
Warning: Simulation tolerance relaxed to achieve convergence from 3.0191381983551014e-07 to 3.0191381983651012e-07 seconds.
Warning: Simulation tolerance relaxed to achieve convergence from 3.0191381986351003e-07 to 3.0191381986451001e-07 seconds.
Warning: Simulation tolerance relaxed to achieve convergence from 3.0191381994450999e-07 to 3.0191381994550997e-07 seconds.
Warning: Simulation tolerance relaxed to achieve convergence from 3.0191381994850995e-07 to 3.0191381994950992e-07 seconds.
Warning: Simulation tolerance relaxed to achieve convergence from 3.0191381995650986e-07 to 3.0191381995750983e-07 seconds.
Warning: Simulation tolerance relaxed to achieve convergence from 3.0191381995850981e-07 to 3.0191381995950978e-07 seconds.
Warning: Simulation tolerance relaxed to achieve convergence from 3.0191381998450969e-07 to 3.0191381998550967e-07 seconds.
Warning: Simulation tolerance relaxed to achieve convergence from 3.0191381999550964e-07 to 3.0191381999650961e-07 seconds.
Warning: Simulation tolerance relaxed to achieve convergence from 3.0191382000250962e-07 to 3.0191382000350960e-07 seconds.
Warning: Simulation tolerance relaxed to achieve convergence from 3.0191382005850956e-07 to 3.0191382005950954e-07 seconds.
Warning: Simulation tolerance relaxed to achieve convergence from 3.0191382011350932e-07 to 3.0191382011450929e-07 seconds.
Warning: Simulation tolerance relaxed to achieve convergence from 3.0191382011450929e-07 to 3.0191382011550927e-07 seconds.
Warning: Simulation tolerance relaxed to achieve convergence from 3.0191382012350923e-07 to 3.0191382012450921e-07 seconds.
Warning: Simulation tolerance relaxed to achieve convergence from 3.0191382012550918e-07 to 3.0191382012650916e-07 seconds.
Warning: Simulation tolerance relaxed to achieve convergence from 3.0191382012650916e-07 to 3.0191382012750913e-07 seconds.
Warning: Simulation tolerance relaxed to achieve convergence from 3.0191382012950914e-07 to 3.0191382013050911e-07 seconds.
Warning: Simulation tolerance relaxed to achieve convergence from 3.0191382065150886e-07 to 3.0191382065250883e-07 seconds.
Warning: Simulation tolerance relaxed to achieve convergence from 3.0191382067450882e-07 to 3.0191382067550880e-07 seconds.
Warning: Simulation tolerance relaxed to achieve convergence from 3.0191382069050880e-07 to 3.0191382069150877e-07 seconds.
Warning: Simulation tolerance relaxed to achieve convergence from 3.0191382070750875e-07 to 3.0191382070850872e-07 seconds.
Warning: Simulation tolerance relaxed to achieve convergence from 3.0191382085450867e-07 to 3.0191382085550865e-07 seconds.
Warning: Simulation tolerance relaxed to achieve convergence from 3.0191382092050858e-07 to 3.0191382092150855e-07 seconds.
Warning: Simulation tolerance relaxed to achieve convergence from 3.0191382104250853e-07 to 3.0191382104350851e-07 seconds.
Warning: Simulation tolerance relaxed to achieve convergence from 3.0191382104550851e-07 to 3.0191382104650849e-07 seconds.
Warning: Simulation tolerance relaxed to achieve convergence from 3.0191382106450836e-07 to 3.0191382106550834e-07 seconds.
Warning: Simulation tolerance relaxed to achieve convergence from 3.0191382109250830e-07 to 3.0191382109350828e-07 seconds.
Warning: Simulation tolerance relaxed to achieve convergence from 3.0191383104150828e-07 to 3.0191383104250825e-07 seconds.
Warning: Simulation tolerance relaxed to achieve convergence from 3.0191383119750824e-07 to 3.0191383119850821e-07 seconds.
Warning: Simulation tolerance relaxed to achieve convergence from 3.0191383134250810e-07 to 3.0191383134350808e-07 seconds.
Warning: Simulation tolerance relaxed to achieve convergence from 3.0191383134350808e-07 to 3.0191383134450805e-07 seconds.
Warning: Simulation tolerance relaxed to achieve convergence from 3.0191383136450809e-07 to 3.0191383136550807e-07 seconds.
Warning: Simulation tolerance relaxed to achieve convergence from 3.0191383448350797e-07 to 3.0191383448450795e-07 seconds.
Warning: Simulation tolerance relaxed to achieve convergence from 3.0191383448450795e-07 to 3.0191383448550792e-07 seconds.
Warning: Simulation tolerance relaxed to achieve convergence from 3.0191383453350796e-07 to 3.0191383453450793e-07 seconds.
Warning: Simulation tolerance relaxed to achieve convergence from 3.0191383453450793e-07 to 3.0191383453550791e-07 seconds.
Warning: Simulation tolerance relaxed to achieve convergence from 3.0191383455550794e-07 to 3.0191383455650792e-07 seconds.
Warning: Simulation tolerance relaxed to achieve convergence from 3.0191383559950792e-07 to 3.0191383560050790e-07 seconds.
Warning: Simulation tolerance relaxed to achieve convergence from 3.0191383568150786e-07 to 3.0191383568250783e-07 seconds.
[...]
Warning: Simulation tolerance relaxed to achieve convergence from 3.0631574220040108e-07 to 3.0631574220140105e-07 seconds.
Warning: Simulation tolerance relaxed to achieve convergence from 3.0631574232740107e-07 to 3.0631574232840104e-07 seconds.
Warning: Simulation tolerance relaxed to achieve convergence from 3.0631574234940084e-07 to 3.0631574235040082e-07 seconds.
Warning: Simulation tolerance relaxed to achieve convergence from 3.0631574235740081e-07 to 3.0631574235840078e-07 seconds.
Warning: Simulation tolerance relaxed to achieve convergence from 3.0631574236740072e-07 to 3.0631574236840069e-07 seconds.
Warning: Simulation tolerance relaxed to achieve convergence from 3.0631574292340056e-07 to 3.0631574292440053e-07 seconds.
Warning: Simulation tolerance relaxed to achieve convergence from 3.0631574293940053e-07 to 3.0631574294040051e-07 seconds.
Warning: Simulation tolerance relaxed to achieve convergence from 3.0631574525340052e-07 to 3.0631574525440050e-07 seconds.
Warning: Simulation tolerance relaxed to achieve convergence from 3.0631574525940048e-07 to 3.0631574526040046e-07 seconds.
Warning: Simulation tolerance relaxed to achieve convergence from 3.0631576245740021e-07 to 3.0631576245840019e-07 seconds.
Warning: Simulation tolerance relaxed to achieve convergence from 3.0631576247540009e-07 to 3.0631576247640006e-07 seconds.
Warning: Simulation tolerance relaxed to achieve convergence from 3.0631576250939999e-07 to 3.0631576251039996e-07 seconds.
Warning: Simulation tolerance relaxed to achieve convergence from 3.0631576251939990e-07 to 3.0631576252039988e-07 seconds.
Warning: Simulation tolerance relaxed to achieve convergence from 3.0631576317539981e-07 to 3.0631576317639979e-07 seconds.
Warning: Simulation tolerance relaxed to achieve convergence from 3.0631576317739976e-07 to 3.0631576317839974e-07 seconds.
Warning: Simulation tolerance relaxed to achieve convergence from 3.0631576435339977e-07 to 3.0631576435439974e-07 seconds.
Warning: Simulation tolerance relaxed to achieve convergence from 3.0631576437439962e-07 to 3.0631576437539959e-07 seconds.
Warning: Simulation tolerance relaxed to achieve convergence from 3.0631576437739960e-07 to 3.0631576437839957e-07 seconds.
Warning: Simulation tolerance relaxed to achieve convergence from 3.0631576439239949e-07 to 3.0631576439339947e-07 seconds.
Warning: Simulation tolerance relaxed to achieve convergence from 3.0631576538239937e-07 to 3.0631576538339935e-07 seconds.
Warning: Simulation tolerance relaxed to achieve convergence from 3.0631576541039937e-07 to 3.0631576541139935e-07 seconds.
Warning: Simulation tolerance relaxed to achieve convergence from 3.0631576643939929e-07 to 3.0631576644039927e-07 seconds.
Warning: Simulation tolerance relaxed to achieve convergence from 3.0631576669939929e-07 to 3.0631576670039926e-07 seconds.
Warning: Simulation tolerance relaxed to achieve convergence from 3.0631576670439922e-07 to 3.0631576670539919e-07 seconds.
Warning: Simulation tolerance relaxed to achieve convergence from 3.0631576678239920e-07 to 3.0631576678339917e-07 seconds.
Warning: Simulation tolerance relaxed to achieve convergence from 3.0631576679739920e-07 to 3.0631576679839917e-07 seconds.
Warning: Simulation tolerance relaxed to achieve convergence from 3.0631576680539916e-07 to 3.0631576680639914e-07 seconds.
Warning: Simulation tolerance relaxed to achieve convergence from 3.0631576994839887e-07 to 3.0631576994939885e-07 seconds.
Warning: Simulation tolerance relaxed to achieve convergence from 3.0631576998239883e-07 to 3.0631576998339880e-07 seconds.
Warning: Simulation tolerance relaxed to achieve convergence from 3.0631576998339880e-07 to 3.0631576998439878e-07 seconds.
Warning: Simulation tolerance relaxed to achieve convergence from 3.0631577008539878e-07 to 3.0631577008639875e-07 seconds.
Warning: Simulation tolerance relaxed to achieve convergence from 3.0631577008639875e-07 to 3.0631577008739873e-07 seconds.
Warning: Simulation tolerance relaxed to achieve convergence from 3.0631577010339870e-07 to 3.0631577010439868e-07 seconds.
Warning: Simulation tolerance relaxed to achieve convergence from 3.0631577011539862e-07 to 3.0631577011639859e-07 seconds.
Warning: Simulation tolerance relaxed to achieve convergence from 3.0631577016239852e-07 to 3.0631577016339849e-07 seconds.
Warning: Simulation tolerance relaxed to achieve convergence from 3.0631577016439847e-07 to 3.0631577016539844e-07 seconds.
Warning: Simulation tolerance relaxed to achieve convergence from 3.0631577026939847e-07 to 3.0631577027039845e-07 seconds.
Warning: Simulation tolerance relaxed to achieve convergence from 3.0631577028639837e-07 to 3.0631577028739835e-07 seconds.
Warning: Simulation tolerance relaxed to achieve convergence from 3.0631577029339836e-07 to 3.0631577029439833e-07 seconds.
Warning: Simulation tolerance relaxed to achieve convergence from 3.0631577030839836e-07 to 3.0631577030939833e-07 seconds.
Warning: Simulation tolerance relaxed to achieve convergence from 3.0631577031839832e-07 to 3.0631577031939830e-07 seconds.
Warning: Simulation tolerance relaxed to achieve convergence from 3.0631577032839829e-07 to 3.0631577032939826e-07 seconds.
Warning: Simulation tolerance relaxed to achieve convergence from 3.0631577033239824e-07 to 3.0631577033339822e-07 seconds.
Warning: Simulation tolerance relaxed to achieve convergence from 3.0631577037039799e-07 to 3.0631577037139797e-07 seconds.
Warning: Simulation tolerance relaxed to achieve convergence from 3.0631577038239791e-07 to 3.0631577038339788e-07 seconds.
Warning: Simulation tolerance relaxed to achieve convergence from 3.0631577043139786e-07 to 3.0631577043239784e-07 seconds.
Warning: Simulation tolerance relaxed to achieve convergence from 3.0631577047739784e-07 to 3.0631577047839782e-07 seconds.
Warning: Simulation tolerance relaxed to achieve convergence from 3.0631577052639759e-07 to 3.0631577052739756e-07 seconds.
Warning: Simulation tolerance relaxed to achieve convergence from 3.0631577053139752e-07 to 3.0631577053239749e-07 seconds.
Warning: Simulation tolerance relaxed to achieve convergence from 3.0631577071539737e-07 to 3.0631577071639735e-07 seconds.
Warning: Simulation tolerance relaxed to achieve convergence from 3.0646702996239692e-07 to 3.0646702996339689e-07 seconds.
Warning: Simulation tolerance relaxed to achieve convergence from 3.0646703016139688e-07 to 3.0646703016239685e-07 seconds.
Warning: Simulation tolerance relaxed to achieve convergence from 3.0646704149039695e-07 to 3.0646704149139693e-07 seconds.
Warning: Simulation tolerance relaxed to achieve convergence from 3.0646704151139686e-07 to 3.0646704151239684e-07 seconds.
Warning: Simulation tolerance relaxed to achieve convergence from 3.0646704932639679e-07 to 3.0646704932739677e-07 seconds.
Warning: Simulation tolerance relaxed to achieve convergence from 3.0646704939039675e-07 to 3.0646704939139673e-07 seconds.
Warning: Simulation tolerance relaxed to achieve convergence from 3.0646704947739667e-07 to 3.0646704947839664e-07 seconds.
Warning: Simulation tolerance relaxed to achieve convergence from 3.0646705692239668e-07 to 3.0646705692339665e-07 seconds.
Warning: Simulation tolerance relaxed to achieve convergence from 3.0646705694739664e-07 to 3.0646705694839662e-07 seconds.
Warning: Simulation tolerance relaxed to achieve convergence from 3.0646705695139660e-07 to 3.0646705695239657e-07 seconds.
Warning: Simulation tolerance relaxed to achieve convergence from 3.0646706122639655e-07 to 3.0646706122739653e-07 seconds.
Warning: Simulation tolerance relaxed to achieve convergence from 3.0646706125339647e-07 to 3.0646706125439644e-07 seconds.
Warning: Simulation tolerance relaxed to achieve convergence from 3.0646706126639641e-07 to 3.0646706126739639e-07 seconds.
Warning: Simulation tolerance relaxed to achieve convergence from 3.0646706126939639e-07 to 3.0646706127039637e-07 seconds.
Warning: Simulation tolerance relaxed to achieve convergence from 3.0646706127639638e-07 to 3.0646706127739635e-07 seconds.
Warning: Simulation tolerance relaxed to achieve convergence from 3.0646706154039622e-07 to 3.0646706154139619e-07 seconds.
Warning: Simulation tolerance relaxed to achieve convergence from 3.0646706168339618e-07 to 3.0646706168439616e-07 seconds.
Warning: Simulation tolerance relaxed to achieve convergence from 3.0646706171439611e-07 to 3.0646706171539608e-07 seconds.
Warning: Simulation tolerance relaxed to achieve convergence from 3.0646706171739609e-07 to 3.0646706171839606e-07 seconds.
Warning: Simulation tolerance relaxed to achieve convergence from 3.0646706172239602e-07 to 3.0646706172339599e-07 seconds.
Warning: Simulation tolerance relaxed to achieve convergence from 3.0646706172739595e-07 to 3.0646706172839592e-07 seconds.
Warning: Simulation tolerance relaxed to achieve convergence from 3.0646706173639588e-07 to 3.0646706173739586e-07 seconds.
Warning: Simulation tolerance relaxed to achieve convergence from 3.0646706173839583e-07 to 3.0646706173939581e-07 seconds.
Warning: Simulation tolerance relaxed to achieve convergence from 3.0646706174639579e-07 to 3.0646706174739577e-07 seconds.
Warning: Simulation tolerance relaxed to achieve convergence from 3.0646721977539560e-07 to 3.0646721977639558e-07 seconds.
Warning: Simulation tolerance relaxed to achieve convergence from 3.0646721988839551e-07 to 3.0646721988939549e-07 seconds.
Warning: Simulation tolerance relaxed to achieve convergence from 3.0646721992539545e-07 to 3.0646721992639542e-07 seconds.
Warning: Simulation tolerance relaxed to achieve convergence from 3.0646721993339541e-07 to 3.0646721993439538e-07 seconds.
Warning: Simulation tolerance relaxed to achieve convergence from 3.0646721998139539e-07 to 3.0646721998239536e-07 seconds.
Warning: Simulation tolerance relaxed to achieve convergence from 3.0646721998839538e-07 to 3.0646721998939535e-07 seconds.
Warning: Simulation tolerance relaxed to achieve convergence from 3.0646721999139535e-07 to 3.0646721999239533e-07 seconds.
Warning: Simulation tolerance relaxed to achieve convergence from 3.0646723156839524e-07 to 3.0646723156939522e-07 seconds.
Warning: Simulation tolerance relaxed to achieve convergence from 3.0646723156939522e-07 to 3.0646723157039519e-07 seconds.
Warning: Simulation tolerance relaxed to achieve convergence from 3.0646723166039509e-07 to 3.0646723166139507e-07 seconds.
Warning: Simulation tolerance relaxed to achieve convergence from 3.0646723192539507e-07 to 3.0646723192639504e-07 seconds.
Warning: Simulation tolerance relaxed to achieve convergence from 3.0646723258039495e-07 to 3.0646723258139493e-07 seconds.
Warning: Simulation tolerance relaxed to achieve convergence from 3.0646723258339488e-07 to 3.0646723258439485e-07 seconds.
Warning: Simulation tolerance relaxed to achieve convergence from 3.0646723299839486e-07 to 3.0646723299939483e-07 seconds.
Warning: Simulation tolerance relaxed to achieve convergence from 3.0646723300139484e-07 to 3.0646723300239481e-07 seconds.
Warning: Simulation tolerance relaxed to achieve convergence from 3.0646723301239478e-07 to 3.0646723301339475e-07 seconds.
Warning: Simulation tolerance relaxed to achieve convergence from 3.0646723301739471e-07 to 3.0646723301839468e-07 seconds.
Warning: Simulation tolerance relaxed to achieve convergence from 3.0646723303539463e-07 to 3.0646723303639461e-07 seconds.
Warning: Simulation tolerance relaxed to achieve convergence from 3.0646724838439439e-07 to 3.0646724838539437e-07 seconds.
Warning: Simulation tolerance relaxed to achieve convergence from 3.0646724944639429e-07 to 3.0646724944739427e-07 seconds.
Warning: Simulation tolerance relaxed to achieve convergence from 3.0646725204539424e-07 to 3.0646725204639422e-07 seconds.
Warning: Simulation tolerance relaxed to achieve convergence from 3.0646725205239418e-07 to 3.0646725205339415e-07 seconds.
Warning: Simulation tolerance relaxed to achieve convergence from 3.0646725223739401e-07 to 3.0646725223839398e-07 seconds.
Warning: Simulation tolerance relaxed to achieve convergence from 3.0646725231439401e-07 to 3.0646725231539399e-07 seconds.
Warning: Simulation tolerance relaxed to achieve convergence from 3.0646725231639397e-07 to 3.0646725231739394e-07 seconds.
Warning: Simulation tolerance relaxed to achieve convergence from 3.0646725235139395e-07 to 3.0646725235239392e-07 seconds.
Warning: Simulation tolerance relaxed to achieve convergence from 3.0646734960039393e-07 to 3.0646734960139390e-07 seconds.
Warning: Simulation tolerance relaxed to achieve convergence from 3.0646734968839388e-07 to 3.0646734968939385e-07 seconds.
Warning: Simulation tolerance relaxed to achieve convergence from 3.0646734982039385e-07 to 3.0646734982139383e-07 seconds.
Warning: Simulation tolerance relaxed to achieve convergence from 3.0646734986239377e-07 to 3.0646734986339374e-07 seconds.
Warning: Simulation tolerance relaxed to achieve convergence from 3.0646735050239370e-07 to 3.0646735050339368e-07 seconds.
Warning: Simulation tolerance relaxed to achieve convergence from 3.0646735055539372e-07 to 3.0646735055639369e-07 seconds.
Warning: Simulation tolerance relaxed to achieve convergence from 3.0646735057139364e-07 to 3.0646735057239362e-07 seconds.
Warning: Simulation tolerance relaxed to achieve convergence from 3.0646735058239358e-07 to 3.0646735058339356e-07 seconds.
Warning: Simulation tolerance relaxed to achieve convergence from 3.0646735060339349e-07 to 3.0646735060439346e-07 seconds.
Warning: Simulation tolerance relaxed to achieve convergence from 3.0646735276439339e-07 to 3.0646735276539336e-07 seconds.
Warning: Simulation tolerance relaxed to achieve convergence from 3.0646735277839326e-07 to 3.0646735277939323e-07 seconds.
Warning: Simulation tolerance relaxed to achieve convergence from 3.0646735277939323e-07 to 3.0646735278039321e-07 seconds.
Warning: Simulation tolerance relaxed to achieve convergence from 3.0646735285039317e-07 to 3.0646735285139315e-07 seconds.
Warning: Simulation tolerance relaxed to achieve convergence from 3.0646735288239313e-07 to 3.0646735288339310e-07 seconds.
Warning: Simulation tolerance relaxed to achieve convergence from 3.0646735288339310e-07 to 3.0646735288439308e-07 seconds.
Warning: Simulation tolerance relaxed to achieve convergence from 3.0646735289039309e-07 to 3.0646735289139306e-07 seconds.
Warning: Simulation tolerance relaxed to achieve convergence from 3.0646735291739290e-07 to 3.0646735291839287e-07 seconds.
Warning: Simulation tolerance relaxed to achieve convergence from 3.0646735336939260e-07 to 3.0646735337039258e-07 seconds.
Warning: Simulation tolerance relaxed to achieve convergence from 3.0646735437739251e-07 to 3.0646735437839249e-07 seconds.
Warning: Simulation tolerance relaxed to achieve convergence from 3.0646735438039244e-07 to 3.0646735438139241e-07 seconds.
Warning: Simulation tolerance relaxed to achieve convergence from 3.0646735908139231e-07 to 3.0646735908239229e-07 seconds.
Warning: Simulation tolerance relaxed to achieve convergence from 3.0646735914239203e-07 to 3.0646735914339200e-07 seconds.
Warning: Simulation tolerance relaxed to achieve convergence from 3.0646735914339200e-07 to 3.0646735914439198e-07 seconds.
Warning: Simulation tolerance relaxed to achieve convergence from 3.0646735914439198e-07 to 3.0646735914539195e-07 seconds.
Warning: Simulation tolerance relaxed to achieve convergence from 3.0646735929639188e-07 to 3.0646735929739186e-07 seconds.
Warning: Simulation tolerance relaxed to achieve convergence from 3.0646735929839183e-07 to 3.0646735929939181e-07 seconds.
Warning: Simulation tolerance relaxed to achieve convergence from 3.0646735930139181e-07 to 3.0646735930239179e-07 seconds.
Warning: Simulation tolerance relaxed to achieve convergence from 3.0646738504939177e-07 to 3.0646738505039174e-07 seconds.
Warning: Simulation tolerance relaxed to achieve convergence from 3.0646738505539173e-07 to 3.0646738505639170e-07 seconds.
Warning: Simulation tolerance relaxed to achieve convergence from 3.0646738532539174e-07 to 3.0646738532639171e-07 seconds.
Warning: Simulation tolerance relaxed to achieve convergence from 3.0646738537039169e-07 to 3.0646738537139166e-07 seconds.
Warning: Simulation tolerance relaxed to achieve convergence from 3.0646738537339161e-07 to 3.0646738537439159e-07 seconds.
Warning: Simulation tolerance relaxed to achieve convergence from 3.0646738537439159e-07 to 3.0646738537539156e-07 seconds.
Warning: Simulation tolerance relaxed to achieve convergence from 3.0646738612239140e-07 to 3.0646738612339138e-07 seconds.
Warning: Simulation tolerance relaxed to achieve convergence from 3.0646738617139141e-07 to 3.0646738617239139e-07 seconds.
Warning: Simulation tolerance relaxed to achieve convergence from 3.0646738625239132e-07 to 3.0646738625339129e-07 seconds.
Warning: Simulation tolerance relaxed to achieve convergence from 3.0646738630239125e-07 to 3.0646738630339123e-07 seconds.
Warning: Simulation tolerance relaxed to achieve convergence from 3.0646738636339123e-07 to 3.0646738636439120e-07 seconds.
Warning: Simulation tolerance relaxed to achieve convergence from 3.0646738638239113e-07 to 3.0646738638339110e-07 seconds.
Warning: Simulation tolerance relaxed to achieve convergence from 3.0646738638939112e-07 to 3.0646738639039109e-07 seconds.
Warning: Simulation tolerance relaxed to achieve convergence from 3.0646738639039109e-07 to 3.0646738639139107e-07 seconds.
Warning: Simulation tolerance relaxed to achieve convergence from 3.0646739065239094e-07 to 3.0646739065339092e-07 seconds.
Warning: Simulation tolerance relaxed to achieve convergence from 3.0646739065839085e-07 to 3.0646739065939082e-07 seconds.
Warning: Simulation tolerance relaxed to achieve convergence from 3.0646739074139076e-07 to 3.0646739074239073e-07 seconds.
Warning: Simulation tolerance relaxed to achieve convergence from 3.0646739074339071e-07 to 3.0646739074439069e-07 seconds.
Warning: Simulation tolerance relaxed to achieve convergence from 3.0646739083439069e-07 to 3.0646739083539066e-07 seconds.
Warning: Simulation tolerance relaxed to achieve convergence from 3.0646739153039067e-07 to 3.0646739153139065e-07 seconds.
Warning: Simulation tolerance relaxed to achieve convergence from 3.0646740017039064e-07 to 3.0646740017139061e-07 seconds.
Warning: Simulation tolerance relaxed to achieve convergence from 3.0646740018539053e-07 to 3.0646740018639051e-07 seconds.
Warning: Simulation tolerance relaxed to achieve convergence from 3.0646740019039046e-07 to 3.0646740019139044e-07 seconds.
Warning: Simulation tolerance relaxed to achieve convergence from 3.0646740022139044e-07 to 3.0646740022239042e-07 seconds.
Warning: Simulation tolerance relaxed to achieve convergence from 3.0646742450839044e-07 to 3.0646742450939041e-07 seconds.
Warning: Simulation tolerance relaxed to achieve convergence from 3.0646742453739041e-07 to 3.0646742453839038e-07 seconds.
Warning: Simulation tolerance relaxed to achieve convergence from 3.0646742456939041e-07 to 3.0646742457039039e-07 seconds.
Warning: Simulation tolerance relaxed to achieve convergence from 3.0646742482439042e-07 to 3.0646742482539040e-07 seconds.
Warning: Simulation tolerance relaxed to achieve convergence from 3.0646742483039038e-07 to 3.0646742483139036e-07 seconds.
Warning: Simulation tolerance relaxed to achieve convergence from 3.0646742483239033e-07 to 3.0646742483339031e-07 seconds.
Warning: Simulation tolerance relaxed to achieve convergence from 3.0646742483839029e-07 to 3.0646742483939027e-07 seconds.
Warning: Simulation tolerance relaxed to achieve convergence from 3.0646742496339017e-07 to 3.0646742496339017e-07 seconds.
Total elapsed time: 46.479 seconds.

Simulation Failed: 

Total elapsed time: 46.479 seconds.

Files loaded:
C:\Users\Guilherme Xavier\Documents\GitHub\Retificadores\Retificador Monofásico.net
C:\Users\Guilherme Xavier\AppData\Local\LTspice\lib\cmp\standard.dio

