LTspice 24.1.1 for Windows
Circuit: C:\Users\Guilherme Xavier\Documents\GitHub\Retificadores\Retificador Monofásico.net
Start Time: Fri Feb 21 14:22:34 2025
solver = Normal
Maximum thread count: 4
tnom = 27
temp = 27
method = trap
.OP point found by inspection.
Total elapsed time: 0.179 seconds.

Files loaded:
C:\Users\Guilherme Xavier\Documents\GitHub\Retificadores\Retificador Monofásico.net
C:\Users\Guilherme Xavier\AppData\Local\LTspice\lib\cmp\standard.dio

